LTspice 24.1.5 for Windows
Circuit: C:\Users\luqui\OneDrive\Documents\GitHub\scales-hardware\imx8x_eps_leviathan\simulation_models\ltSpice\full_eps_sim\full_eps_sim.net
Start Time: Sun Mar 15 15:24:33 2026
solver = Normal
Maximum thread count: 16
tnom = 27
temp = 27
method = trap
d_d1: Emission coefficient, N=0.01, too small, limited to 0.1
d_d1: Emission coefficient, N=0.01, too small, limited to 0.1
d_d1: Emission coefficient, N=0.01, too small, limited to 0.1
d_d1: Emission coefficient, N=0.01, too small, limited to 0.1
d_d1: Emission coefficient, N=0.01, too small, limited to 0.1
dd: Emission coefficient, N=0.01, too small, limited to 0.1
dd: Emission coefficient, N=0.01, too small, limited to 0.1
dd: Emission coefficient, N=0.01, too small, limited to 0.1
dd: Emission coefficient, N=0.01, too small, limited to 0.1
dd: Emission coefficient, N=0.01, too small, limited to 0.1
dd: Emission coefficient, N=0.01, too small, limited to 0.1
Direct Newton iteration failed to find .op point.  (Use ".option noopiter" to skip.)
Starting Gmin stepping
Gmin = 10
vernier = 0.5
Gmin = 2.84124
vernier = 0.666667
vernier = 0.333333
vernier = 0.166667
Gmin = 2.05621
vernier = 0.222222
vernier = 0.111111
vernier = 0.148148
vernier = 0.074074
Gmin = 1.72125
vernier = 0.0987653
vernier = 0.0493827
Gmin = 1.5136
vernier = 0.0658435
vernier = 0.0329218
vernier = 0.0438957
Gmin = 1.40222
vernier = 0.0219478
vernier = 0.0292638
Gmin = 1.33971
vernier = 0.0146319
vernier = 0.0195092
Gmin = 1.29327
vernier = 0.0260122
vernier = 0.0130061
Gmin = 1.25198
vernier = 0.0173415
vernier = 0.00867074
vernier = 0.011561
Gmin = 1.22562
vernier = 0.0154146
vernier = 0.00770732
Gmin = 1.2011
vernier = 0.0102764
vernier = 0.00513821
Gmin = 1.18123
vernier = 0.00685095
vernier = 0.0091346
Gmin = 1.16202
vernier = 0.0045673
vernier = 0.00608973
Gmin = 1.15102
vernier = 0.00811964
vernier = 0.00405982
vernier = 0.00541309
Gmin = 1.14017
vernier = 0.00721745
vernier = 0.00360873
Gmin = 1.12943
vernier = 0.00481163
vernier = 0.00240582
Gmin = 1.12131
vernier = 0.00320776
vernier = 0.00427701
vernier = 0.0021385
Gmin = 1.11459
vernier = 0.00285134
Gmin = 1.10766
vernier = 0.00380178
vernier = 0.00190089
vernier = 0.00253452
Gmin = 1.10285
vernier = 0.00337936
vernier = 0.00168968
Gmin = 1.0982
vernier = 0.00225291
vernier = 0.00300387
vernier = 0.00150194
Gmin = 1.09363
vernier = 0.000750968
vernier = 0.00100129
vernier = 0.000500645
Gmin = 1.09246
Gmin = 0
Gmin stepping failed

Starting source stepping with srcstepmethod=0
Source Step = 3.0303%
vernier = 0.25
Source Step = 7.57576%
Source Step = 15.1515%
Source Step = 22.7273%
Source Step = 30.303%
Source Step = 37.8788%
vernier = 0.375
Source Step = 48.8636%
Source Step = 60.2273%
Source Step = 71.5909%
Source Step = 82.9545%
Source Step = 94.3182%
vernier = 0.5625
Source stepping succeeded in finding the operating point.

Changing Tseed to 1e-08
Warning: Simulation tolerance relaxed to achieve convergence from 1.0447711048810419e-03 to 1.0447711048810519e-03 seconds.
Warning: Simulation tolerance relaxed to achieve convergence from 1.0447711048811063e-03 to 1.0447711048811163e-03 seconds.
Warning: Simulation tolerance relaxed to achieve convergence from 1.0447996526471008e-03 to 1.0447996526471107e-03 seconds.
Warning: Simulation tolerance relaxed to achieve convergence from 1.0602504403543016e-03 to 1.0602504403543116e-03 seconds.
Warning: Simulation tolerance relaxed to achieve convergence from 1.0602504403547091e-03 to 1.0602504403547190e-03 seconds.
Warning: Simulation tolerance relaxed to achieve convergence from 1.0602504403561762e-03 to 1.0602504403561862e-03 seconds.
Warning: Simulation tolerance relaxed to achieve convergence from 1.0654636284941610e-03 to 1.0654636284941710e-03 seconds.
Warning: Simulation tolerance relaxed to achieve convergence from 1.0654636284981615e-03 to 1.0654636284981715e-03 seconds.
Warning: Simulation tolerance relaxed to achieve convergence from 1.0654636284982823e-03 to 1.0654636284982923e-03 seconds.
Warning: Simulation tolerance relaxed to achieve convergence from 1.0680670349252843e-03 to 1.0680670349252942e-03 seconds.
Warning: Simulation tolerance relaxed to achieve convergence from 1.0680670349253940e-03 to 1.0680670349254239e-03 seconds.
Warning: Simulation tolerance relaxed to achieve convergence from 1.0759615513228572e-03 to 1.0759615513228672e-03 seconds.
Warning: Simulation tolerance relaxed to achieve convergence from 1.0759626826320359e-03 to 1.0759626826320459e-03 seconds.
Warning: Simulation tolerance relaxed to achieve convergence from 1.0759626836317397e-03 to 1.0759626836317497e-03 seconds.
Warning: Simulation tolerance relaxed to achieve convergence from 1.0759626836318590e-03 to 1.0759626836318690e-03 seconds.
Warning: Simulation tolerance relaxed to achieve convergence from 1.0759722851077366e-03 to 1.0759722851077466e-03 seconds.
Warning: Simulation tolerance relaxed to achieve convergence from 1.0810211286329207e-03 to 1.0810211286329606e-03 seconds.
Warning: Simulation tolerance relaxed to achieve convergence from 1.0810211300350092e-03 to 1.0810211300350191e-03 seconds.
Warning: Simulation tolerance relaxed to achieve convergence from 1.0810211309101323e-03 to 1.0810211309101423e-03 seconds.
Warning: Simulation tolerance relaxed to achieve convergence from 1.0936498140342132e-03 to 1.0936498140342232e-03 seconds.
Warning: Simulation tolerance relaxed to achieve convergence from 1.0936498140675728e-03 to 1.0936498140675828e-03 seconds.
Warning: Simulation tolerance relaxed to achieve convergence from 1.0936498141200133e-03 to 1.0936498141200332e-03 seconds.
Warning: Simulation tolerance relaxed to achieve convergence from 1.0936498141309919e-03 to 1.0936498141310019e-03 seconds.
Warning: Simulation tolerance relaxed to achieve convergence from 1.0936498141330170e-03 to 1.0936498141330270e-03 seconds.
Warning: Simulation tolerance relaxed to achieve convergence from 1.0942985538237714e-03 to 1.0942985538237814e-03 seconds.
Warning: Simulation tolerance relaxed to achieve convergence from 1.0967101336876099e-03 to 1.0967101336876199e-03 seconds.
Warning: Simulation tolerance relaxed to achieve convergence from 1.1091471615762105e-03 to 1.1091471615762404e-03 seconds.
Warning: Simulation tolerance relaxed to achieve convergence from 1.1091471615764083e-03 to 1.1091471615764183e-03 seconds.
Warning: Simulation tolerance relaxed to achieve convergence from 1.1168126897610410e-03 to 1.1168126897610710e-03 seconds.
Warning: Simulation tolerance relaxed to achieve convergence from 1.1370906334552972e-03 to 1.1370906334553271e-03 seconds.
Warning: Simulation tolerance relaxed to achieve convergence from 1.1423377665382055e-03 to 1.1423377665382155e-03 seconds.
Warning: Simulation tolerance relaxed to achieve convergence from 1.1423377665383001e-03 to 1.1423377665383100e-03 seconds.
Warning: Simulation tolerance relaxed to achieve convergence from 1.1423377665405958e-03 to 1.1423377665406057e-03 seconds.
Warning: Simulation tolerance relaxed to achieve convergence from 1.1551670773849688e-03 to 1.1551670773849788e-03 seconds.
Warning: Simulation tolerance relaxed to achieve convergence from 1.1578443027887577e-03 to 1.1578443027888076e-03 seconds.
Warning: Simulation tolerance relaxed to achieve convergence from 1.1883917382419047e-03 to 1.1883917382419147e-03 seconds.
Warning: Simulation tolerance relaxed to achieve convergence from 1.1884957935089308e-03 to 1.1884957935089607e-03 seconds.
Warning: Simulation tolerance relaxed to achieve convergence from 1.1884957943080971e-03 to 1.1884957943081071e-03 seconds.
Warning: Simulation tolerance relaxed to achieve convergence from 1.1884957943084393e-03 to 1.1884957943084492e-03 seconds.
Warning: Simulation tolerance relaxed to achieve convergence from 1.1962902604247077e-03 to 1.1962902604247176e-03 seconds.
Warning: Simulation tolerance relaxed to achieve convergence from 1.2038180500933784e-03 to 1.2038180500933884e-03 seconds.
Warning: Simulation tolerance relaxed to achieve convergence from 1.2038180500941859e-03 to 1.2038180500942059e-03 seconds.
Warning: Simulation tolerance relaxed to achieve convergence from 1.2048164916435196e-03 to 1.2048164916435295e-03 seconds.
Warning: Simulation tolerance relaxed to achieve convergence from 1.2048164916435794e-03 to 1.2048164916435894e-03 seconds.
Warning: Simulation tolerance relaxed to achieve convergence from 1.2048164916436228e-03 to 1.2048164916436328e-03 seconds.
Warning: Simulation tolerance relaxed to achieve convergence from 1.2048164916457931e-03 to 1.2048164916458031e-03 seconds.
Warning: Simulation tolerance relaxed to achieve convergence from 1.2064997276215114e-03 to 1.2064997276215214e-03 seconds.
Warning: Simulation tolerance relaxed to achieve convergence from 1.2064997276270042e-03 to 1.2064997276270142e-03 seconds.

Simulation stopped by user.
Total elapsed time: 278.776 seconds.

Files loaded:
C:\Users\luqui\OneDrive\Documents\GitHub\scales-hardware\imx8x_eps_leviathan\simulation_models\ltSpice\full_eps_sim\full_eps_sim.net
C:\Users\luqui\AppData\Local\LTspice\lib\cmp\standard.dio
C:\Users\luqui\OneDrive\Documents\GitHub\scales-hardware\imx8x_eps_leviathan\simulation_models\ltSpice\full_eps_sim\TPS1HB08B-Q1_TRANS.lib
C:\Users\luqui\AppData\Local\LTspice\lib\sub\LT8612.sub
C:\Users\luqui\AppData\Local\LTspice\lib\sub\LTC1.lib
