LTspice 24.0.12 for Windows
Circuit: * C:\Users\Luca Lanzillotta\Documents\GitHub\scales-hardware\imx8x_eps_leviathan\simulation_models\ltSpice\full_eps_sim\full_eps_sim.asc
Start Time: Mon Mar 16 22:15:25 2026
Questionable use of curly braces in "b呈_abmgate yint 0 v={if(v(a)>{{vthresh}},{{vdd}},{{vss}})}"
    Error: undefined symbol in: "if([v](a)>((vthresh)),((vdd)),((vss)))"
Questionable use of curly braces in "b呈_abmgate yint 0 v={if(v(a)>{{vthresh}},{{vss}},{{vdd}})}"
    Error: undefined symbol in: "if([v](a)>((vthresh)),((vss)),((vdd)))"
Questionable use of curly braces in "b呈_abmgate yint 0 v={if(v(a)>{{vthresh}}&v(b)>{{vthresh}},{{vdd}},{{vss}})}"
    Error: undefined symbol in: "if([v](a)>((vthresh))&v(b)>((vthresh)),((vdd)),((vss)))"
Questionable use of curly braces in "b呈_abmgate yint 0 v={if(v(a)>{{vthresh}},{{vss}},{{vdd}})}"
    Error: undefined symbol in: "if([v](a)>((vthresh)),((vss)),((vdd)))"
Questionable use of curly braces in "b呈_abmgate yint 0 v={if(v(a)>{{vthresh}},{{vdd}},{{vss}})}"
    Error: undefined symbol in: "if([v](a)>((vthresh)),((vdd)),((vss)))"
Questionable use of curly braces in "b呈_abmgate yint 0 v={if(v(a)>{{vthresh}},{{vdd}},{{vss}})}"
    Error: undefined symbol in: "if([v](a)>((vthresh)),((vdd)),((vss)))"
Questionable use of curly braces in "b呈_abmgate yint 0 v={if(v(a)>{{vthresh}}|v(b)>{{vthresh}},{{vdd}},{{vss}})}"
    Error: undefined symbol in: "if([v](a)>((vthresh))|v(b)>((vthresh)),((vdd)),((vss)))"
Questionable use of curly braces in "b呈_abmgate yint 0 v={if(v(a)>{{vthresh}}|v(b)>{{vthresh}},{{vdd}},{{vss}})}"
    Error: undefined symbol in: "if([v](a)>((vthresh))|v(b)>((vthresh)),((vdd)),((vss)))"
Questionable use of curly braces in "b呈_abmgate yint 0 v={if(v(a)>{{vthresh}}&v(b)>{{vthresh}},{{vdd}},{{vss}})}"
    Error: undefined symbol in: "if([v](a)>((vthresh))&v(b)>((vthresh)),((vdd)),((vss)))"
Questionable use of curly braces in "b呈_abmgate yint 0 v={if(v(a)>{{vthresh}}|v(b)>{{vthresh}}|v(c)>{{vthresh}},{{vdd}},{{vss}})}"
    Error: undefined symbol in: "if([v](a)>((vthresh))|v(b)>((vthresh))|v(c)>((vthresh)),((vdd)),((vss)))"
Questionable use of curly braces in "b呈_abmgate yint 0 v={if(v(s)>{{vthresh}},v(b),v(a))}"
    Error: undefined symbol in: "if([v](s)>((vthresh)),v(b),v(a))"
Questionable use of curly braces in "b呈_abmgate yint 0 v={if(v(a)>{{vthresh}}&v(b)>{{vthresh}}&v(c)>{{vthresh}},{{vdd}},{{vss}})}"
    Error: undefined symbol in: "if([v](a)>((vthresh))&v(b)>((vthresh))&v(c)>((vthresh)),((vdd)),((vss)))"
Questionable use of curly braces in "b呈_abmgate yint 0 v={if(v(a)>{{vthresh}}|v(b)>{{vthresh}},{{vdd}},{{vss}})}"
    Error: undefined symbol in: "if([v](a)>((vthresh))|v(b)>((vthresh)),((vdd)),((vss)))"
Questionable use of curly braces in "b呈_abmgate yint 0 v={if(v(a)>{{vthresh}}&v(b)>{{vthresh}}&v(c)>{{vthresh}}&v(d)>{{vthresh}},{{vdd}},{{vss}})}"
    Error: undefined symbol in: "if([v](a)>((vthresh))&v(b)>((vthresh))&v(c)>((vthresh))&v(d)>((vthresh)),((vdd)),((vss)))"
Questionable use of curly braces in "b呈_abmgate yint 0 v={if(v(a)>{{vthresh}}|v(b)>{{vthresh}}|v(c)>{{vthresh}},{{vdd}},{{vss}})}"
    Error: undefined symbol in: "if([v](a)>((vthresh))|v(b)>((vthresh))|v(c)>((vthresh)),((vdd)),((vss)))"
Questionable use of curly braces in "b呈_abmgate1 yint1 0 v={if(v(a)>{{vthresh}},{{vdd}},{{vss}})}"
    Error: undefined symbol in: "if([v](a)>((vthresh)),((vdd)),((vss)))"
Questionable use of curly braces in "b呈_abmgate2 yint3 0 v={if(v(yint2)>{{vthresh}},{{vdd}},{{vss}})}"
    Error: undefined symbol in: "if([v](yint2)>((vthresh)),((vdd)),((vss)))"
Questionable use of curly braces in "b呈_abmgate yint 0 v={if(v(a)>{{vthresh}}|v(b)>{{vthresh}}|v(c)>{{vthresh}},{{vss}},{{vdd}})}"
    Error: undefined symbol in: "if([v](a)>((vthresh))|v(b)>((vthresh))|v(c)>((vthresh)),((vss)),((vdd)))"
Questionable use of curly braces in "b呈_abmgate yint 0 v={if(v(a)>{{vthresh}}|v(b)>{{vthresh}},{{vss}},{{vdd}})}"
    Error: undefined symbol in: "if([v](a)>((vthresh))|v(b)>((vthresh)),((vss)),((vdd)))"
Questionable use of curly braces in "b呈_abmgate1 yint1 0 v={if(v(a)>{{vthresh}},{{vdd}},{{vss}})}"
    Error: undefined symbol in: "if([v](a)>((vthresh)),((vdd)),((vss)))"
Questionable use of curly braces in "b呈_abmgate2 yint3 0 v={if(v(yint2)>{{vthresh}},{{vdd}},{{vss}})}"
    Error: undefined symbol in: "if([v](yint2)>((vthresh)),((vdd)),((vss)))"
Questionable use of curly braces in "b呈_abmgate yint 0 v={if(v(a)>{{vthresh}},{{vdd}},{{vss}})}"
    Error: undefined symbol in: "if([v](a)>((vthresh)),((vdd)),((vss)))"
Questionable use of curly braces in "b呈_abmgate yint 0 v={if(v(a)>{{vthresh}}|v(b)>{{vthresh}},{{vdd}},{{vss}})}"
    Error: undefined symbol in: "if([v](a)>((vthresh))|v(b)>((vthresh)),((vdd)),((vss)))"
Questionable use of curly braces in "b呈_abmgate yint 0 v={if(v(a)>{{vthresh}},{{vss}},{{vdd}})}"
    Error: undefined symbol in: "if([v](a)>((vthresh)),((vss)),((vdd)))"
Questionable use of curly braces in "b呈_abmgate yint 0 v={if(v(a)>{{vthresh}}&v(b)>{{vthresh}},{{vdd}},{{vss}})}"
    Error: undefined symbol in: "if([v](a)>((vthresh))&v(b)>((vthresh)),((vdd)),((vss)))"
Questionable use of curly braces in "b呈_abmgate1 yint1 0 v={if(v(a)>{{vthresh}},{{vdd}},{{vss}})}"
    Error: undefined symbol in: "if([v](a)>((vthresh)),((vdd)),((vss)))"
Questionable use of curly braces in "b呈_abmgate2 yint3 0 v={if(v(yint2)>{{vthresh}},{{vdd}},{{vss}})}"
    Error: undefined symbol in: "if([v](yint2)>((vthresh)),((vdd)),((vss)))"
Questionable use of curly braces in "b呈_abmgate yint 0 v={if(v(a)>{{vthresh}}&v(b)>{{vthresh}}&v(c)>{{vthresh}},{{vdd}},{{vss}})}"
    Error: undefined symbol in: "if([v](a)>((vthresh))&v(b)>((vthresh))&v(c)>((vthresh)),((vdd)),((vss)))"
Questionable use of curly braces in "b呈_abmgate yint 0 v={if(v(a)>{{vthresh}}|v(b)>{{vthresh}},{{vdd}},{{vss}})}"
    Error: undefined symbol in: "if([v](a)>((vthresh))|v(b)>((vthresh)),((vdd)),((vss)))"
Questionable use of curly braces in "b呈_abmgate yint 0 v={if(v(a)>{{vthresh}}&v(b)>{{vthresh}},{{vdd}},{{vss}})}"
    Error: undefined symbol in: "if([v](a)>((vthresh))&v(b)>((vthresh)),((vdd)),((vss)))"
Questionable use of curly braces in "b呈_abmgate yint 0 v={if(v(a)>{{vthresh}},{{vss}},{{vdd}})}"
    Error: undefined symbol in: "if([v](a)>((vthresh)),((vss)),((vdd)))"
Questionable use of curly braces in "b呈_abmgate yint 0 v={if(v(a)>{{vthresh}}&v(b)>{{vthresh}},{{vdd}},{{vss}})}"
    Error: undefined symbol in: "if([v](a)>((vthresh))&v(b)>((vthresh)),((vdd)),((vss)))"
Questionable use of curly braces in "b呈_abmgate yint 0 v={if(v(a)>{{vthresh}},{{vss}},{{vdd}})}"
    Error: undefined symbol in: "if([v](a)>((vthresh)),((vss)),((vdd)))"
Questionable use of curly braces in "b呈_abmgate yint 0 v={if(v(a)>{{vthresh}},{{vss}},{{vdd}})}"
    Error: undefined symbol in: "if([v](a)>((vthresh)),((vss)),((vdd)))"
Questionable use of curly braces in "b呈_abmgate yint 0 v={if(v(a)>{{vthresh}}&v(b)>{{vthresh}},{{vdd}},{{vss}})}"
    Error: undefined symbol in: "if([v](a)>((vthresh))&v(b)>((vthresh)),((vdd)),((vss)))"
Questionable use of curly braces in "b呈_abmgate yint 0 v={if(v(a)>{{vthresh}}&v(b)>{{vthresh}},{{vdd}},{{vss}})}"
    Error: undefined symbol in: "if([v](a)>((vthresh))&v(b)>((vthresh)),((vdd)),((vss)))"
Questionable use of curly braces in "b呈_abmgate1 yint1 0 v={if(v(a)>{{vthresh}},{{vdd}},{{vss}})}"
    Error: undefined symbol in: "if([v](a)>((vthresh)),((vdd)),((vss)))"
Questionable use of curly braces in "b呈_abmgate2 yint3 0 v={if(v(yint2)>{{vthresh}},{{vdd}},{{vss}})}"
    Error: undefined symbol in: "if([v](yint2)>((vthresh)),((vdd)),((vss)))"
Questionable use of curly braces in "b呈_abmgate1 yint1 0 v={if(v(a)>{{vthresh}},{{vdd}},{{vss}})}"
    Error: undefined symbol in: "if([v](a)>((vthresh)),((vdd)),((vss)))"
Questionable use of curly braces in "b呈_abmgate2 yint3 0 v={if(v(yint2)>{{vthresh}},{{vdd}},{{vss}})}"
    Error: undefined symbol in: "if([v](yint2)>((vthresh)),((vdd)),((vss)))"
Questionable use of curly braces in "b呈_abmgate1 yint1 0 v={if(v(a)>{{vthresh}},{{vdd}},{{vss}})}"
    Error: undefined symbol in: "if([v](a)>((vthresh)),((vdd)),((vss)))"
Questionable use of curly braces in "b呈_abmgate2 yint3 0 v={if(v(yint2)>{{vthresh}},{{vdd}},{{vss}})}"
    Error: undefined symbol in: "if([v](yint2)>((vthresh)),((vdd)),((vss)))"
Questionable use of curly braces in "b呈_abmgate1 yint1 0 v={if(v(a)>{{vthresh}},{{vdd}},{{vss}})}"
    Error: undefined symbol in: "if([v](a)>((vthresh)),((vdd)),((vss)))"
Questionable use of curly braces in "b呈_abmgate2 yint3 0 v={if(v(yint2)>{{vthresh}},{{vdd}},{{vss}})}"
    Error: undefined symbol in: "if([v](yint2)>((vthresh)),((vdd)),((vss)))"
Questionable use of curly braces in "b呈_abmgate yint 0 v={if(v(a)>{{vthresh}},{{vdd}},{{vss}})}"
    Error: undefined symbol in: "if([v](a)>((vthresh)),((vdd)),((vss)))"
Questionable use of curly braces in "b呈_abmgate yint 0 v={if(v(a)>{{vthresh}},{{vss}},{{vdd}})}"
    Error: undefined symbol in: "if([v](a)>((vthresh)),((vss)),((vdd)))"
Questionable use of curly braces in "b呈_abmgate yint 0 v={if(v(a)>{{vthresh}}&v(b)>{{vthresh}},{{vdd}},{{vss}})}"
    Error: undefined symbol in: "if([v](a)>((vthresh))&v(b)>((vthresh)),((vdd)),((vss)))"
Questionable use of curly braces in "b呈_abmgate yint 0 v={if(v(a)>{{vthresh}},{{vss}},{{vdd}})}"
    Error: undefined symbol in: "if([v](a)>((vthresh)),((vss)),((vdd)))"
Questionable use of curly braces in "b呈_abmgate yint 0 v={if(v(a)>{{vthresh}},{{vdd}},{{vss}})}"
    Error: undefined symbol in: "if([v](a)>((vthresh)),((vdd)),((vss)))"
Questionable use of curly braces in "b呈_abmgate yint 0 v={if(v(a)>{{vthresh}},{{vdd}},{{vss}})}"
    Error: undefined symbol in: "if([v](a)>((vthresh)),((vdd)),((vss)))"
Questionable use of curly braces in "b呈_abmgate yint 0 v={if(v(a)>{{vthresh}}|v(b)>{{vthresh}},{{vdd}},{{vss}})}"
    Error: undefined symbol in: "if([v](a)>((vthresh))|v(b)>((vthresh)),((vdd)),((vss)))"
Questionable use of curly braces in "b呈_abmgate yint 0 v={if(v(a)>{{vthresh}}|v(b)>{{vthresh}},{{vdd}},{{vss}})}"
    Error: undefined symbol in: "if([v](a)>((vthresh))|v(b)>((vthresh)),((vdd)),((vss)))"
Questionable use of curly braces in "b呈_abmgate yint 0 v={if(v(a)>{{vthresh}}&v(b)>{{vthresh}},{{vdd}},{{vss}})}"
    Error: undefined symbol in: "if([v](a)>((vthresh))&v(b)>((vthresh)),((vdd)),((vss)))"
Questionable use of curly braces in "b呈_abmgate yint 0 v={if(v(a)>{{vthresh}}|v(b)>{{vthresh}}|v(c)>{{vthresh}},{{vdd}},{{vss}})}"
    Error: undefined symbol in: "if([v](a)>((vthresh))|v(b)>((vthresh))|v(c)>((vthresh)),((vdd)),((vss)))"
Questionable use of curly braces in "b呈_abmgate yint 0 v={if(v(s)>{{vthresh}},v(b),v(a))}"
    Error: undefined symbol in: "if([v](s)>((vthresh)),v(b),v(a))"
Questionable use of curly braces in "b呈_abmgate yint 0 v={if(v(a)>{{vthresh}}&v(b)>{{vthresh}}&v(c)>{{vthresh}},{{vdd}},{{vss}})}"
    Error: undefined symbol in: "if([v](a)>((vthresh))&v(b)>((vthresh))&v(c)>((vthresh)),((vdd)),((vss)))"
Questionable use of curly braces in "b呈_abmgate yint 0 v={if(v(a)>{{vthresh}}|v(b)>{{vthresh}},{{vdd}},{{vss}})}"
    Error: undefined symbol in: "if([v](a)>((vthresh))|v(b)>((vthresh)),((vdd)),((vss)))"
Questionable use of curly braces in "b呈_abmgate yint 0 v={if(v(a)>{{vthresh}}&v(b)>{{vthresh}}&v(c)>{{vthresh}}&v(d)>{{vthresh}},{{vdd}},{{vss}})}"
    Error: undefined symbol in: "if([v](a)>((vthresh))&v(b)>((vthresh))&v(c)>((vthresh))&v(d)>((vthresh)),((vdd)),((vss)))"
Questionable use of curly braces in "b呈_abmgate yint 0 v={if(v(a)>{{vthresh}}|v(b)>{{vthresh}}|v(c)>{{vthresh}},{{vdd}},{{vss}})}"
    Error: undefined symbol in: "if([v](a)>((vthresh))|v(b)>((vthresh))|v(c)>((vthresh)),((vdd)),((vss)))"
Questionable use of curly braces in "b呈_abmgate1 yint1 0 v={if(v(a)>{{vthresh}},{{vdd}},{{vss}})}"
    Error: undefined symbol in: "if([v](a)>((vthresh)),((vdd)),((vss)))"
Questionable use of curly braces in "b呈_abmgate2 yint3 0 v={if(v(yint2)>{{vthresh}},{{vdd}},{{vss}})}"
    Error: undefined symbol in: "if([v](yint2)>((vthresh)),((vdd)),((vss)))"
Questionable use of curly braces in "b呈_abmgate yint 0 v={if(v(a)>{{vthresh}}|v(b)>{{vthresh}}|v(c)>{{vthresh}},{{vss}},{{vdd}})}"
    Error: undefined symbol in: "if([v](a)>((vthresh))|v(b)>((vthresh))|v(c)>((vthresh)),((vss)),((vdd)))"
Questionable use of curly braces in "b呈_abmgate yint 0 v={if(v(a)>{{vthresh}}|v(b)>{{vthresh}},{{vss}},{{vdd}})}"
    Error: undefined symbol in: "if([v](a)>((vthresh))|v(b)>((vthresh)),((vss)),((vdd)))"
Questionable use of curly braces in "b呈_abmgate1 yint1 0 v={if(v(a)>{{vthresh}},{{vdd}},{{vss}})}"
    Error: undefined symbol in: "if([v](a)>((vthresh)),((vdd)),((vss)))"
Questionable use of curly braces in "b呈_abmgate2 yint3 0 v={if(v(yint2)>{{vthresh}},{{vdd}},{{vss}})}"
    Error: undefined symbol in: "if([v](yint2)>((vthresh)),((vdd)),((vss)))"
Questionable use of curly braces in "b呈_abmgate yint 0 v={if(v(a)>{{vthresh}},{{vdd}},{{vss}})}"
    Error: undefined symbol in: "if([v](a)>((vthresh)),((vdd)),((vss)))"
Questionable use of curly braces in "b呈_abmgate yint 0 v={if(v(a)>{{vthresh}}|v(b)>{{vthresh}},{{vdd}},{{vss}})}"
    Error: undefined symbol in: "if([v](a)>((vthresh))|v(b)>((vthresh)),((vdd)),((vss)))"
Questionable use of curly braces in "b呈_abmgate yint 0 v={if(v(a)>{{vthresh}},{{vss}},{{vdd}})}"
    Error: undefined symbol in: "if([v](a)>((vthresh)),((vss)),((vdd)))"
Questionable use of curly braces in "b呈_abmgate yint 0 v={if(v(a)>{{vthresh}}&v(b)>{{vthresh}},{{vdd}},{{vss}})}"
    Error: undefined symbol in: "if([v](a)>((vthresh))&v(b)>((vthresh)),((vdd)),((vss)))"
Questionable use of curly braces in "b呈_abmgate1 yint1 0 v={if(v(a)>{{vthresh}},{{vdd}},{{vss}})}"
    Error: undefined symbol in: "if([v](a)>((vthresh)),((vdd)),((vss)))"
Questionable use of curly braces in "b呈_abmgate2 yint3 0 v={if(v(yint2)>{{vthresh}},{{vdd}},{{vss}})}"
    Error: undefined symbol in: "if([v](yint2)>((vthresh)),((vdd)),((vss)))"
Questionable use of curly braces in "b呈_abmgate yint 0 v={if(v(a)>{{vthresh}}&v(b)>{{vthresh}}&v(c)>{{vthresh}},{{vdd}},{{vss}})}"
    Error: undefined symbol in: "if([v](a)>((vthresh))&v(b)>((vthresh))&v(c)>((vthresh)),((vdd)),((vss)))"
Questionable use of curly braces in "b呈_abmgate yint 0 v={if(v(a)>{{vthresh}}|v(b)>{{vthresh}},{{vdd}},{{vss}})}"
    Error: undefined symbol in: "if([v](a)>((vthresh))|v(b)>((vthresh)),((vdd)),((vss)))"
Questionable use of curly braces in "b呈_abmgate yint 0 v={if(v(a)>{{vthresh}}&v(b)>{{vthresh}},{{vdd}},{{vss}})}"
    Error: undefined symbol in: "if([v](a)>((vthresh))&v(b)>((vthresh)),((vdd)),((vss)))"
Questionable use of curly braces in "b呈_abmgate yint 0 v={if(v(a)>{{vthresh}},{{vss}},{{vdd}})}"
    Error: undefined symbol in: "if([v](a)>((vthresh)),((vss)),((vdd)))"
Questionable use of curly braces in "b呈_abmgate yint 0 v={if(v(a)>{{vthresh}}&v(b)>{{vthresh}},{{vdd}},{{vss}})}"
    Error: undefined symbol in: "if([v](a)>((vthresh))&v(b)>((vthresh)),((vdd)),((vss)))"
Questionable use of curly braces in "b呈_abmgate yint 0 v={if(v(a)>{{vthresh}},{{vss}},{{vdd}})}"
    Error: undefined symbol in: "if([v](a)>((vthresh)),((vss)),((vdd)))"
Questionable use of curly braces in "b呈_abmgate yint 0 v={if(v(a)>{{vthresh}},{{vss}},{{vdd}})}"
    Error: undefined symbol in: "if([v](a)>((vthresh)),((vss)),((vdd)))"
Questionable use of curly braces in "b呈_abmgate yint 0 v={if(v(a)>{{vthresh}}&v(b)>{{vthresh}},{{vdd}},{{vss}})}"
    Error: undefined symbol in: "if([v](a)>((vthresh))&v(b)>((vthresh)),((vdd)),((vss)))"
Questionable use of curly braces in "b呈_abmgate yint 0 v={if(v(a)>{{vthresh}}&v(b)>{{vthresh}},{{vdd}},{{vss}})}"
    Error: undefined symbol in: "if([v](a)>((vthresh))&v(b)>((vthresh)),((vdd)),((vss)))"
Questionable use of curly braces in "b呈_abmgate1 yint1 0 v={if(v(a)>{{vthresh}},{{vdd}},{{vss}})}"
    Error: undefined symbol in: "if([v](a)>((vthresh)),((vdd)),((vss)))"
Questionable use of curly braces in "b呈_abmgate2 yint3 0 v={if(v(yint2)>{{vthresh}},{{vdd}},{{vss}})}"
    Error: undefined symbol in: "if([v](yint2)>((vthresh)),((vdd)),((vss)))"
Questionable use of curly braces in "b呈_abmgate1 yint1 0 v={if(v(a)>{{vthresh}},{{vdd}},{{vss}})}"
    Error: undefined symbol in: "if([v](a)>((vthresh)),((vdd)),((vss)))"
Questionable use of curly braces in "b呈_abmgate2 yint3 0 v={if(v(yint2)>{{vthresh}},{{vdd}},{{vss}})}"
    Error: undefined symbol in: "if([v](yint2)>((vthresh)),((vdd)),((vss)))"
Questionable use of curly braces in "b呈_abmgate1 yint1 0 v={if(v(a)>{{vthresh}},{{vdd}},{{vss}})}"
    Error: undefined symbol in: "if([v](a)>((vthresh)),((vdd)),((vss)))"
Questionable use of curly braces in "b呈_abmgate2 yint3 0 v={if(v(yint2)>{{vthresh}},{{vdd}},{{vss}})}"
    Error: undefined symbol in: "if([v](yint2)>((vthresh)),((vdd)),((vss)))"
Questionable use of curly braces in "b呈_abmgate1 yint1 0 v={if(v(a)>{{vthresh}},{{vdd}},{{vss}})}"
    Error: undefined symbol in: "if([v](a)>((vthresh)),((vdd)),((vss)))"
Questionable use of curly braces in "b呈_abmgate2 yint3 0 v={if(v(yint2)>{{vthresh}},{{vdd}},{{vss}})}"
    Error: undefined symbol in: "if([v](yint2)>((vthresh)),((vdd)),((vss)))"
Questionable use of curly braces in "b呈_abmgate yint 0 v={if(v(a)>{{vthresh}},{{vdd}},{{vss}})}"
    Error: undefined symbol in: "if([v](a)>((vthresh)),((vdd)),((vss)))"
Questionable use of curly braces in "b呈_abmgate yint 0 v={if(v(a)>{{vthresh}},{{vdd}},{{vss}})}"
    Error: undefined symbol in: "if([v](a)>((vthresh)),((vdd)),((vss)))"
Questionable use of curly braces in "b呈_abmgate yint 0 v={if(v(a)>{{vthresh}},{{vdd}},{{vss}})}"
    Error: undefined symbol in: "if([v](a)>((vthresh)),((vdd)),((vss)))"
Questionable use of curly braces in "b呈_abmgate yint 0 v={if(v(a)>{{vthresh}},{{vdd}},{{vss}})}"
    Error: undefined symbol in: "if([v](a)>((vthresh)),((vdd)),((vss)))"
Questionable use of curly braces in "b呈_abmgate yint 0 v={if(v(a)>{{vthresh}},{{vdd}},{{vss}})}"
    Error: undefined symbol in: "if([v](a)>((vthresh)),((vdd)),((vss)))"
Questionable use of curly braces in "b呈_abmgate yint 0 v={if(v(a)>{{vthresh}},{{vdd}},{{vss}})}"
    Error: undefined symbol in: "if([v](a)>((vthresh)),((vdd)),((vss)))"
Questionable use of curly braces in "b呈_abmgate yint 0 v={if(v(a)>{{vthresh}},{{vdd}},{{vss}})}"
    Error: undefined symbol in: "if([v](a)>((vthresh)),((vdd)),((vss)))"
Questionable use of curly braces in "b呈_abmgate yint 0 v={if(v(a)>{{vthresh}},{{vdd}},{{vss}})}"
    Error: undefined symbol in: "if([v](a)>((vthresh)),((vdd)),((vss)))"
Questionable use of curly braces in "b呈_abmgate yint 0 v={if(v(a)>{{vthresh}},{{vdd}},{{vss}})}"
    Error: undefined symbol in: "if([v](a)>((vthresh)),((vdd)),((vss)))"
Questionable use of curly braces in "b呈_abmgate yint 0 v={if(v(a)>{{vthresh}},{{vdd}},{{vss}})}"
    Error: undefined symbol in: "if([v](a)>((vthresh)),((vdd)),((vss)))"
Warning: Multiple definitions of model "smcj33a" Type: Diode
solver = Normal
Maximum thread count: 16
tnom = 27
temp = 27
method = modified trap
Limiting rise time of source v3 to 0.01
Limiting fall time of source v3 to 0.01
WARNING: Less than two connections to node n061.  This node is used by r203.
WARNING: Less than two connections to node n057.  This node is used by r201.
WARNING: Less than two connections to node n053.  This node is used by r200.
WARNING: Less than two connections to node n069.  This node is used by r211.
WARNING: Less than two connections to node n064.  This node is used by r210.
WARNING: Less than two connections to node n062.  This node is used by r209.
u4:_u3_u105:d_d1: Emission coefficient, N=0.01, too small, limited to 0.1
u4:_u3_u144:d_d1: Emission coefficient, N=0.01, too small, limited to 0.1
u4:_u3_u140:d_d1: Emission coefficient, N=0.01, too small, limited to 0.1
u4:_u3_u114:d_d1: Emission coefficient, N=0.01, too small, limited to 0.1
u4:_u1_u4_u62:d_d1: Emission coefficient, N=0.01, too small, limited to 0.1
u4:_u1_u4_u61:dd: Emission coefficient, N=0.01, too small, limited to 0.1
u4:_u1_u4_u22:dd: Emission coefficient, N=0.01, too small, limited to 0.1
u4:_u1_u2_u205:dd: Emission coefficient, N=0.01, too small, limited to 0.1
u4:_u1_u2_u206:dd: Emission coefficient, N=0.01, too small, limited to 0.1
u4:_u1_u2_u204:dd: Emission coefficient, N=0.01, too small, limited to 0.1
u4:_u1_u2_u220:dd: Emission coefficient, N=0.01, too small, limited to 0.1
u14:_u3_u105:d_d1: Emission coefficient, N=0.01, too small, limited to 0.1
u14:_u3_u144:d_d1: Emission coefficient, N=0.01, too small, limited to 0.1
u14:_u3_u140:d_d1: Emission coefficient, N=0.01, too small, limited to 0.1
u14:_u3_u114:d_d1: Emission coefficient, N=0.01, too small, limited to 0.1
u14:_u1_u4_u62:d_d1: Emission coefficient, N=0.01, too small, limited to 0.1
u14:_u1_u4_u61:dd: Emission coefficient, N=0.01, too small, limited to 0.1
u14:_u1_u4_u22:dd: Emission coefficient, N=0.01, too small, limited to 0.1
u14:_u1_u2_u205:dd: Emission coefficient, N=0.01, too small, limited to 0.1
u14:_u1_u2_u206:dd: Emission coefficient, N=0.01, too small, limited to 0.1
u14:_u1_u2_u204:dd: Emission coefficient, N=0.01, too small, limited to 0.1
u14:_u1_u2_u220:dd: Emission coefficient, N=0.01, too small, limited to 0.1
Direct Newton iteration failed to find .op point.  (Use ".option noopiter" to skip.)
Starting Gmin stepping
Gmin = 10
vernier = 0.5
vernier = 0.25
Gmin = 2.09715
vernier = 0.125
vernier = 0.166667
Gmin = 1.5272
vernier = 0.222222
vernier = 0.111111
vernier = 0.0555555
Gmin = 1.27864
vernier = 0.074074
vernier = 0.037037
Gmin = 1.16621
vernier = 0.0185185
vernier = 0.0246913
vernier = 0.0123457
Gmin = 1.13607
vernier = 0.0164609
vernier = 0.00823044
Gmin = 1.10954
vernier = 0.0109739
vernier = 0.00548696
vernier = 0.00274348
vernier = 0.00137174
Gmin = 1.10159
vernier = 0.00182899
vernier = 0.00243865
Gmin = 1.09648
vernier = 0.00325153
Gmin = 1.08849
vernier = 0.00433537
vernier = 0.00578049
Gmin = 1.07521
vernier = 0.00289025
vernier = 0.00144512
vernier = 0.000722562
vernier = 0.000541921
vernier = 0.000722562
Gmin = 1.07584
vernier = 0.000963415
Gmin = 1.07358
vernier = 0.00128455
vernier = 0.00171274
Gmin = 1.06988
vernier = 0.00228365
vernier = 0.00304486
Gmin = 1.06404
vernier = 0.00405982
Gmin = 1.05464
vernier = 0.00541309
vernier = 0.00721745
Gmin = 1.03942
vernier = 0.00962327
vernier = 0.012831
Gmin = 1.01575
vernier = 0.017108
Gmin = 0.978514
vernier = 0.0228107
vernier = 0.0304142
Gmin = 0.920506
vernier = 0.0405523
vernier = 0.0540697
Gmin = 0.835684
vernier = 0.072093
vernier = 0.0360465
Gmin = 0.747264
vernier = 0.048062
Gmin = 0.671068
vernier = 0.0640826
vernier = 0.0854435
Gmin = 0.560576
vernier = 0.113925
vernier = 0.151899
Gmin = 0.421429
vernier = 0.202532
Gmin = 0.269942
vernier = 0.270043
vernier = 0.360058
Gmin = 0.129214
vernier = 0.480077
vernier = 0.640102
Gmin = 0.0409407
vernier = 0.853469
Gmin = 0.00708487
vernier = 1
Gmin = 0.000760732
Gmin = 8.1683e-05
Gmin = 8.77064e-06
Gmin = 9.41741e-07
Gmin = 1.01119e-07
vernier = 0.5
vernier = 0.25
vernier = 0.125
vernier = 0.0625
vernier = 0.0833333
Gmin = 1.14583e-07
vernier = 0.0416667
vernier = 0.0208333
Gmin = 1.09358e-07
vernier = 0.0277778
vernier = 0.037037
Gmin = 1.01929e-07
vernier = 0.0185185
Gmin = 9.6886e-08
vernier = 0.0246913
vernier = 0.0329218
Gmin = 9.03621e-08
vernier = 0.0164609
vernier = 0.00823044
vernier = 0.00411522
vernier = 0.00205761
vernier = 0.00102881
vernier = 0.000514403
Gmin = 0
Gmin stepping failed

Starting source stepping with srcstepmethod=0
Source Step = 3.0303%
vernier = 0.25
Source Step = 7.57576%
Source Step = 15.1515%
Source Step = 22.7273%
Source Step = 30.303%
Source Step = 37.8788%
vernier = 0.375
Source Step = 48.8636%
Source Step = 60.2273%
Source Step = 71.5909%
Source Step = 82.9545%
Source Step = 94.3182%
vernier = 0.5625
Source stepping succeeded in finding the operating point.

Ignoring empty pin current: Ix(u3:6)
Ignoring empty pin current: Ix(u3:8)
Ignoring empty pin current: Ix(u3:10)
Ignoring empty pin current: Ix(u3:11)
Ignoring empty pin current: Ix(u4:nc_0)
Ignoring empty pin current: Ix(u4:nc_1)
Ignoring empty pin current: Ix(u4:nc_2)
Ignoring empty pin current: Ix(u4:vout_1)
Ignoring empty pin current: Ix(u4:vout_2)
Ignoring empty pin current: Ix(u4:vout_3)
Ignoring empty pin current: Ix(u4:vout_4)
Ignoring empty pin current: Ix(u4:vout_5)
Ignoring empty pin current: Ix(u2:6)
Ignoring empty pin current: Ix(u2:8)
Ignoring empty pin current: Ix(u2:10)
Ignoring empty pin current: Ix(u2:11)
Ignoring empty pin current: Ix(u14:nc_0)
Ignoring empty pin current: Ix(u14:nc_1)
Ignoring empty pin current: Ix(u14:nc_2)
Ignoring empty pin current: Ix(u14:vout_1)
Ignoring empty pin current: Ix(u14:vout_2)
Ignoring empty pin current: Ix(u14:vout_3)
Ignoring empty pin current: Ix(u14:vout_4)
Ignoring empty pin current: Ix(u14:vout_5)
Ignoring empty pin current: Ix(u3:6)
Ignoring empty pin current: Ix(u3:8)
Ignoring empty pin current: Ix(u3:10)
Ignoring empty pin current: Ix(u3:11)
Ignoring empty pin current: Ix(u4:nc_0)
Ignoring empty pin current: Ix(u4:nc_1)
Ignoring empty pin current: Ix(u4:nc_2)
Ignoring empty pin current: Ix(u4:vout_1)
Ignoring empty pin current: Ix(u4:vout_2)
Ignoring empty pin current: Ix(u4:vout_3)
Ignoring empty pin current: Ix(u4:vout_4)
Ignoring empty pin current: Ix(u4:vout_5)
Ignoring empty pin current: Ix(u2:6)
Ignoring empty pin current: Ix(u2:8)
Ignoring empty pin current: Ix(u2:10)
Ignoring empty pin current: Ix(u2:11)
Ignoring empty pin current: Ix(u14:nc_0)
Ignoring empty pin current: Ix(u14:nc_1)
Ignoring empty pin current: Ix(u14:nc_2)
Ignoring empty pin current: Ix(u14:vout_1)
Ignoring empty pin current: Ix(u14:vout_2)
Ignoring empty pin current: Ix(u14:vout_3)
Ignoring empty pin current: Ix(u14:vout_4)
Ignoring empty pin current: Ix(u14:vout_5)
Changing Tseed to 1e-08
Heightened Def Con from 1.02679e-08 to 1.62679e-08
Heightened Def Con from 2.22054e-08 to 2.52054e-08
Heightened Def Con from 3.78982e-08 to 4.08982e-08
Heightened Def Con from 4.44549e-08 to 4.74549e-08
Heightened Def Con from 4.89942e-08 to 5.19942e-08
Heightened Def Con from 5.34346e-08 to 5.64346e-08
Heightened Def Con from 6.05742e-08 to 6.25742e-08
Heightened Def Con from 5.30272e-05 to 5.30302e-05
Heightened Def Con from 5.30346e-05 to 5.30376e-05
Heightened Def Con from 5.30474e-05 to 5.30494e-05
Heightened Def Con from 5.33323e-05 to 5.33353e-05
Heightened Def Con from 5.33715e-05 to 5.33745e-05
Heightened Def Con from 5.38981e-05 to 5.39011e-05
Heightened Def Con from 5.42635e-05 to 5.42665e-05
Heightened Def Con from 5.46056e-05 to 5.46076e-05
Heightened Def Con from 5.61363e-05 to 5.61393e-05
Heightened Def Con from 0.000147766 to 0.000147769
Heightened Def Con from 0.000148082 to 0.000148085
Heightened Def Con from 0.000148423 to 0.000148424
Heightened Def Con from 0.00014862 to 0.000148623
Heightened Def Con from 0.000148779 to 0.00014878
Heightened Def Con from 0.00014883 to 0.000148831
Heightened Def Con from 0.000148961 to 0.000148963
Heightened Def Con from 0.000148991 to 0.000148994
Heightened Def Con from 0.000149108 to 0.000149111
Heightened Def Con from 0.000149431 to 0.000149433
Heightened Def Con from 0.000149515 to 0.000149518
Heightened Def Con from 0.000150021 to 0.000150024
Heightened Def Con from 0.000150025 to 0.000150027
Heightened Def Con from 0.000150035 to 0.000150036
Heightened Def Con from 0.000150076 to 0.000150079
Heightened Def Con from 0.000150702 to 0.000150703
Heightened Def Con from 0.000150916 to 0.000150919
Heightened Def Con from 0.000150941 to 0.000150944
Heightened Def Con from 0.000151465 to 0.000151466
Heightened Def Con from 0.000151466 to 0.000151466
Heightened Def Con from 0.000151749 to 0.000151749
Heightened Def Con from 0.000151749 to 0.000151751
Heightened Def Con from 0.000151845 to 0.000151846
Heightened Def Con from 0.000152304 to 0.000152304
Heightened Def Con from 0.000152636 to 0.000152637
Heightened Def Con from 0.000152797 to 0.0001528
Heightened Def Con from 0.000153298 to 0.0001533
Heightened Def Con from 0.000153301 to 0.000153301
Heightened Def Con from 0.000153465 to 0.000153465
Heightened Def Con from 0.00015351 to 0.000153513
Heightened Def Con from 0.000153933 to 0.000153934
Heightened Def Con from 0.000153988 to 0.00015399
Heightened Def Con from 0.000153994 to 0.000153995
Heightened Def Con from 0.000153998 to 0.000153999
Heightened Def Con from 0.000154083 to 0.000154086
Heightened Def Con from 0.000154512 to 0.000154515
Heightened Def Con from 0.000155034 to 0.000155035
Heightened Def Con from 0.000155082 to 0.000155085
Heightened Def Con from 0.000156013 to 0.000156013
Heightened Def Con from 0.000156014 to 0.000156015
Heightened Def Con from 0.000156093 to 0.000156095
Heightened Def Con from 0.000156106 to 0.000156109
Heightened Def Con from 0.00015626 to 0.000156261
Heightened Def Con from 0.000156402 to 0.000156403
Heightened Def Con from 0.000156463 to 0.000156463
Heightened Def Con from 0.000156496 to 0.000156497
Heightened Def Con from 0.000156499 to 0.000156502
Heightened Def Con from 0.000156583 to 0.000156586
Heightened Def Con from 0.000156593 to 0.000156596
Heightened Def Con from 0.000156897 to 0.000156897
Heightened Def Con from 0.000157018 to 0.000157018
Heightened Def Con from 0.000157018 to 0.000157021
Heightened Def Con from 0.000157027 to 0.00015703
Heightened Def Con from 0.000157105 to 0.000157108
Heightened Def Con from 0.000157218 to 0.000157221
Heightened Def Con from 0.000157242 to 0.000157245
Heightened Def Con from 0.000157381 to 0.000157384
Heightened Def Con from 0.000157547 to 0.000157547
Heightened Def Con from 0.000157547 to 0.00015755
Heightened Def Con from 0.00015768 to 0.000157682
Heightened Def Con from 0.000157692 to 0.000157695
Heightened Def Con from 0.000157737 to 0.000157738
Heightened Def Con from 0.000157809 to 0.000157811
Heightened Def Con from 0.000158029 to 0.00015803
Heightened Def Con from 0.000158178 to 0.000158179
Heightened Def Con from 0.00015818 to 0.000158183
Heightened Def Con from 0.000158505 to 0.000158508
Heightened Def Con from 0.000158524 to 0.000158524
Heightened Def Con from 0.000158784 to 0.000158787
Heightened Def Con from 0.000159132 to 0.000159135
Heightened Def Con from 0.000159357 to 0.00015936
Heightened Def Con from 0.000159404 to 0.000159407
Heightened Def Con from 0.000159557 to 0.00015956
Heightened Def Con from 0.000159653 to 0.000159656
Heightened Def Con from 0.000159678 to 0.000159681
Heightened Def Con from 0.000159681 to 0.000159682
Heightened Def Con from 0.000159722 to 0.000159722
Heightened Def Con from 0.000159728 to 0.000159731
Heightened Def Con from 0.000159736 to 0.000159739
Heightened Def Con from 0.000160017 to 0.000160018
Heightened Def Con from 0.000160416 to 0.000160418
Heightened Def Con from 0.000160701 to 0.000160704
Heightened Def Con from 0.000160712 to 0.000160714
Heightened Def Con from 0.000160877 to 0.000160878
Heightened Def Con from 0.000160997 to 0.000160999
Heightened Def Con from 0.000161229 to 0.000161231
Heightened Def Con from 0.000161233 to 0.000161234
Heightened Def Con from 0.000161606 to 0.000161608
Heightened Def Con from 0.000161801 to 0.000161804
Heightened Def Con from 0.000162501 to 0.000162504
Heightened Def Con from 0.000162731 to 0.000162734
Heightened Def Con from 0.000163752 to 0.000163755
Heightened Def Con from 0.000163976 to 0.000163979
Heightened Def Con from 0.000163988 to 0.000163991
Heightened Def Con from 0.000163997 to 0.000164002
Heightened Def Con from 0.000164126 to 0.000164129
Heightened Def Con from 0.000164153 to 0.000164153
Heightened Def Con from 0.000164162 to 0.000164163
Heightened Def Con from 0.000164166 to 0.00016417
Heightened Def Con from 0.000164173 to 0.000164173
Heightened Def Con from 0.000164175 to 0.000164175
Heightened Def Con from 0.000164433 to 0.000164433
Heightened Def Con from 0.000164912 to 0.000164912
Heightened Def Con from 0.000164913 to 0.000164915
Heightened Def Con from 0.00016494 to 0.000164941
Heightened Def Con from 0.000165318 to 0.000165319
Heightened Def Con from 0.000166537 to 0.000166541
Heightened Def Con from 0.000168021 to 0.000168022
Heightened Def Con from 0.000172606 to 0.000172606
Heightened Def Con from 0.000172606 to 0.000172607
Heightened Def Con from 0.000176344 to 0.000176344
Heightened Def Con from 0.000179719 to 0.000179721
Heightened Def Con from 0.000179846 to 0.000179848
Heightened Def Con from 0.000179885 to 0.000179886
Heightened Def Con from 0.000180848 to 0.000180849
Heightened Def Con from 0.000181214 to 0.000181215
Heightened Def Con from 0.000183837 to 0.000183839
Heightened Def Con from 0.000184847 to 0.000184847
Heightened Def Con from 0.00018538 to 0.00018538
Heightened Def Con from 0.000185457 to 0.000185458
Heightened Def Con from 0.00018546 to 0.000185462
Heightened Def Con from 0.000185474 to 0.000185475
Heightened Def Con from 0.000185485 to 0.000185485
Heightened Def Con from 0.000185488 to 0.000185488
Heightened Def Con from 0.000185556 to 0.000185556
Heightened Def Con from 0.000185561 to 0.000185565
Heightened Def Con from 0.000185565 to 0.000185571
Heightened Def Con from 0.000186704 to 0.000186704
Heightened Def Con from 0.000186704 to 0.000186709
Heightened Def Con from 0.000186712 to 0.000186712
Heightened Def Con from 0.000186716 to 0.000186718
Heightened Def Con from 0.000186794 to 0.000186794
Heightened Def Con from 0.000186795 to 0.000186795
Heightened Def Con from 0.000186796 to 0.000186799
Heightened Def Con from 0.000186806 to 0.000186806
Heightened Def Con from 0.000186807 to 0.000186807
Heightened Def Con from 0.000186828 to 0.000186828
Heightened Def Con from 0.000186896 to 0.000186897
Heightened Def Con from 0.000188094 to 0.000188096
Heightened Def Con from 0.000188096 to 0.000188098
Heightened Def Con from 0.000190351 to 0.000190353
Heightened Def Con from 0.000191069 to 0.000191071
Heightened Def Con from 0.000191398 to 0.000191398
Heightened Def Con from 0.000192121 to 0.000192121
Heightened Def Con from 0.000192965 to 0.000192967
Heightened Def Con from 0.000193346 to 0.000193346
Heightened Def Con from 0.000194278 to 0.000194278
Heightened Def Con from 0.000195593 to 0.000195594
Heightened Def Con from 0.000196525 to 0.000196527
Heightened Def Con from 0.000197271 to 0.000197273
Heightened Def Con from 0.000197274 to 0.000197276
Heightened Def Con from 0.000198528 to 0.000198528
Heightened Def Con from 0.000201986 to 0.000201988
Heightened Def Con from 0.000203701 to 0.000203703
Heightened Def Con from 0.000205288 to 0.00020529
Heightened Def Con from 0.000206951 to 0.000206952
Heightened Def Con from 0.000206963 to 0.000206964
Heightened Def Con from 0.000206965 to 0.000206966
Heightened Def Con from 0.000207136 to 0.000207137
Heightened Def Con from 0.000207138 to 0.000207138
Heightened Def Con from 0.00020714 to 0.000207141
Heightened Def Con from 0.00020715 to 0.000207151
Heightened Def Con from 0.000207181 to 0.000207181
Heightened Def Con from 0.000208192 to 0.000208195
Heightened Def Con from 0.000208199 to 0.000208199
Heightened Def Con from 0.00020828 to 0.00020828
Heightened Def Con from 0.000208284 to 0.000208287
Heightened Def Con from 0.000208295 to 0.000208296
Heightened Def Con from 0.000208303 to 0.000208305
Heightened Def Con from 0.00020874 to 0.000208742
Heightened Def Con from 0.000209465 to 0.000209467
Heightened Def Con from 0.000209524 to 0.000209527
Heightened Def Con from 0.000209535 to 0.000209535
Heightened Def Con from 0.000209547 to 0.000209547
Heightened Def Con from 0.000210362 to 0.000210364
Heightened Def Con from 0.000210365 to 0.000210366
Heightened Def Con from 0.00021256 to 0.000212562
Heightened Def Con from 0.000212568 to 0.00021257
Heightened Def Con from 0.000212585 to 0.000212587
Heightened Def Con from 0.000214951 to 0.000214953
Heightened Def Con from 0.000215242 to 0.000215243
Heightened Def Con from 0.000216108 to 0.00021611
Heightened Def Con from 0.000217032 to 0.000217034
Heightened Def Con from 0.000217182 to 0.000217182
Heightened Def Con from 0.000217236 to 0.000217238
Heightened Def Con from 0.000217238 to 0.00021724
Heightened Def Con from 0.000217521 to 0.000217522
Heightened Def Con from 0.000217912 to 0.000217914
Heightened Def Con from 0.000217928 to 0.000217929
Heightened Def Con from 0.000218063 to 0.000218063
Heightened Def Con from 0.000218063 to 0.000218064
Heightened Def Con from 0.000218593 to 0.000218593
Heightened Def Con from 0.000218593 to 0.000218593
Heightened Def Con from 0.000218628 to 0.000218629
Heightened Def Con from 0.000218629 to 0.000218632
Heightened Def Con from 0.000218632 to 0.000218632
Heightened Def Con from 0.000218632 to 0.000218632
Heightened Def Con from 0.000218632 to 0.000218635
Heightened Def Con from 0.000218638 to 0.000218638
Heightened Def Con from 0.000218638 to 0.000218639
Heightened Def Con from 0.000218639 to 0.000218642
Heightened Def Con from 0.000218642 to 0.000218644
Heightened Def Con from 0.000218648 to 0.000218648
Heightened Def Con from 0.000218648 to 0.000218651
Heightened Def Con from 0.000218656 to 0.000218656
Heightened Def Con from 0.000218685 to 0.000218685
Heightened Def Con from 0.000218685 to 0.000218686
Heightened Def Con from 0.000218686 to 0.000218688
Heightened Def Con from 0.000218722 to 0.000218722
Heightened Def Con from 0.000218724 to 0.000218726
Heightened Def Con from 0.000218734 to 0.000218736
Heightened Def Con from 0.000218741 to 0.000218741
Heightened Def Con from 0.000218777 to 0.000218777
Heightened Def Con from 0.000218777 to 0.000218779
Heightened Def Con from 0.000219663 to 0.000219665
Heightened Def Con from 0.000220765 to 0.000220767
Heightened Def Con from 0.000221839 to 0.00022184
Heightened Def Con from 0.000222345 to 0.000222347
Heightened Def Con from 0.000222575 to 0.000222575
Heightened Def Con from 0.000222575 to 0.000222577
Heightened Def Con from 0.000223283 to 0.000223283
Heightened Def Con from 0.000223321 to 0.000223324
Heightened Def Con from 0.000223384 to 0.000223385
Heightened Def Con from 0.000223466 to 0.000223467
Heightened Def Con from 0.000224051 to 0.000224054
Heightened Def Con from 0.000224086 to 0.000224087
Heightened Def Con from 0.000224154 to 0.000224155
Heightened Def Con from 0.000224155 to 0.000224157
Heightened Def Con from 0.000224812 to 0.000224813
Heightened Def Con from 0.000224922 to 0.000224925
Heightened Def Con from 0.000225441 to 0.000225443
Heightened Def Con from 0.000225465 to 0.000225466
Heightened Def Con from 0.00022558 to 0.000225581
Heightened Def Con from 0.000225581 to 0.000225583
Heightened Def Con from 0.000225637 to 0.000225637
Heightened Def Con from 0.000225726 to 0.000225729
Heightened Def Con from 0.000225768 to 0.000225768
Heightened Def Con from 0.000226142 to 0.000226145
Heightened Def Con from 0.000226208 to 0.00022621
Heightened Def Con from 0.000226297 to 0.000226299
Heightened Def Con from 0.000226399 to 0.000226402
Heightened Def Con from 0.00022661 to 0.000226613
Heightened Def Con from 0.000226711 to 0.000226713
Heightened Def Con from 0.000226743 to 0.000226744
Heightened Def Con from 0.000226746 to 0.000226749
Heightened Def Con from 0.000227196 to 0.000227196
Heightened Def Con from 0.000227218 to 0.000227218
Heightened Def Con from 0.000227271 to 0.000227274
Heightened Def Con from 0.000227366 to 0.000227369
Heightened Def Con from 0.000227369 to 0.000227369
Heightened Def Con from 0.000227371 to 0.000227372
Heightened Def Con from 0.000227692 to 0.000227695
Heightened Def Con from 0.00022771 to 0.000227711
Heightened Def Con from 0.000227756 to 0.000227756
Heightened Def Con from 0.000227981 to 0.000227982
Heightened Def Con from 0.00022802 to 0.000228023
Heightened Def Con from 0.000228348 to 0.000228349
Heightened Def Con from 0.000228363 to 0.000228364
Heightened Def Con from 0.000228371 to 0.000228372
Heightened Def Con from 0.00022843 to 0.000228433
Heightened Def Con from 0.000228439 to 0.000228439
Heightened Def Con from 0.00022845 to 0.000228453
Heightened Def Con from 0.000228456 to 0.000228457
Heightened Def Con from 0.000228459 to 0.000228459
Heightened Def Con from 0.000228468 to 0.000228469
Heightened Def Con from 0.000228484 to 0.000228486
Heightened Def Con from 0.000228498 to 0.000228498
Heightened Def Con from 0.000228584 to 0.000228584
Heightened Def Con from 0.000228584 to 0.000228587
Heightened Def Con from 0.000228618 to 0.000228621
Heightened Def Con from 0.000228627 to 0.000228627
Heightened Def Con from 0.000228628 to 0.00022863
Heightened Def Con from 0.000228637 to 0.000228637
Heightened Def Con from 0.000228637 to 0.000228641
Heightened Def Con from 0.000228794 to 0.000228795
Heightened Def Con from 0.000229034 to 0.000229036
Heightened Def Con from 0.000229239 to 0.000229241
Heightened Def Con from 0.000229325 to 0.000229327
Heightened Def Con from 0.000229588 to 0.000229589
Heightened Def Con from 0.000229655 to 0.000229657
Heightened Def Con from 0.000229684 to 0.000229687
Heightened Def Con from 0.000229692 to 0.000229694
Heightened Def Con from 0.000229695 to 0.000229699
Heightened Def Con from 0.000229768 to 0.000229768
Heightened Def Con from 0.000229769 to 0.000229773
Heightened Def Con from 0.000229783 to 0.000229786
Heightened Def Con from 0.000229969 to 0.000229971
Heightened Def Con from 0.00023032 to 0.000230322
Heightened Def Con from 0.000230351 to 0.000230353
Heightened Def Con from 0.000230459 to 0.000230461
Heightened Def Con from 0.000230709 to 0.000230709
Heightened Def Con from 0.000230709 to 0.000230712
Heightened Def Con from 0.000230714 to 0.000230716
Heightened Def Con from 0.00023072 to 0.000230723
Heightened Def Con from 0.000230739 to 0.000230742
Heightened Def Con from 0.000230744 to 0.000230747
Heightened Def Con from 0.000230747 to 0.000230748
Heightened Def Con from 0.000230748 to 0.00023075
Heightened Def Con from 0.000230757 to 0.000230758
Heightened Def Con from 0.000230758 to 0.000230758
Heightened Def Con from 0.000230758 to 0.00023076
Heightened Def Con from 0.00023076 to 0.000230761
Heightened Def Con from 0.000230761 to 0.000230762
Heightened Def Con from 0.000230763 to 0.000230764
Heightened Def Con from 0.000230764 to 0.000230765
Heightened Def Con from 0.000230768 to 0.00023077
Heightened Def Con from 0.00023077 to 0.00023077
Heightened Def Con from 0.000230925 to 0.000230928
Heightened Def Con from 0.00023093 to 0.000230933
Heightened Def Con from 0.000230937 to 0.00023094
Heightened Def Con from 0.000230942 to 0.000230943
Heightened Def Con from 0.000230945 to 0.000230948
Heightened Def Con from 0.000230948 to 0.000230951
Heightened Def Con from 0.000230954 to 0.000230956
Heightened Def Con from 0.000230956 to 0.000230957
Heightened Def Con from 0.000230965 to 0.000230965
Heightened Def Con from 0.000230965 to 0.000230968
Heightened Def Con from 0.000230969 to 0.000230972
Heightened Def Con from 0.000230984 to 0.000230987
Heightened Def Con from 0.000230999 to 0.000231
Heightened Def Con from 0.000231005 to 0.000231006
Heightened Def Con from 0.000231006 to 0.000231009
Heightened Def Con from 0.000231017 to 0.00023102
Heightened Def Con from 0.000231033 to 0.000231036
Heightened Def Con from 0.00023104 to 0.000231043
Heightened Def Con from 0.000231097 to 0.000231099
Heightened Def Con from 0.000231206 to 0.000231207
Heightened Def Con from 0.000231214 to 0.000231214
Heightened Def Con from 0.000231232 to 0.000231234
Heightened Def Con from 0.000231871 to 0.000231871
Heightened Def Con from 0.000231964 to 0.000231966
Heightened Def Con from 0.000231967 to 0.000231969
Heightened Def Con from 0.000232056 to 0.000232058
Heightened Def Con from 0.000232425 to 0.000232425
Heightened Def Con from 0.000232756 to 0.000232757
Heightened Def Con from 0.000232757 to 0.000232757
Heightened Def Con from 0.000233659 to 0.000233661
Heightened Def Con from 0.000233869 to 0.000233871
Heightened Def Con from 0.000233871 to 0.000233872
Heightened Def Con from 0.000234 to 0.000234
Heightened Def Con from 0.000234398 to 0.0002344
Heightened Def Con from 0.000234474 to 0.000234475
Heightened Def Con from 0.000234816 to 0.000234818
Heightened Def Con from 0.000237149 to 0.00023715
Heightened Def Con from 0.000237154 to 0.000237156
Heightened Def Con from 0.000239681 to 0.000239682
Heightened Def Con from 0.000239932 to 0.000239934
Heightened Def Con from 0.000240812 to 0.000240813
Heightened Def Con from 0.000241872 to 0.000241875
Heightened Def Con from 0.000241968 to 0.00024197
Heightened Def Con from 0.000242023 to 0.000242025
Heightened Def Con from 0.000242207 to 0.000242209
Heightened Def Con from 0.000242451 to 0.000242451
Heightened Def Con from 0.000242649 to 0.000242651
Heightened Def Con from 0.000242832 to 0.000242835
Heightened Def Con from 0.000242892 to 0.000242895
Heightened Def Con from 0.00024306 to 0.000243061
Heightened Def Con from 0.00024331 to 0.000243313
Heightened Def Con from 0.000244387 to 0.000244387
Heightened Def Con from 0.000244433 to 0.000244434
Heightened Def Con from 0.000244833 to 0.000244836
Heightened Def Con from 0.000244876 to 0.000244878
Heightened Def Con from 0.000245178 to 0.000245179
Heightened Def Con from 0.00024518 to 0.000245183
Heightened Def Con from 0.000245191 to 0.000245194
Heightened Def Con from 0.000245924 to 0.000245924
Heightened Def Con from 0.000246098 to 0.000246101
Heightened Def Con from 0.000246117 to 0.00024612
Heightened Def Con from 0.000246443 to 0.000246443
Heightened Def Con from 0.00024654 to 0.000246542
Heightened Def Con from 0.000246688 to 0.000246691
Heightened Def Con from 0.000246786 to 0.000246787
Heightened Def Con from 0.000246943 to 0.000246944
Heightened Def Con from 0.000247044 to 0.000247045
Heightened Def Con from 0.000247045 to 0.000247048
Heightened Def Con from 0.000247076 to 0.000247079
Heightened Def Con from 0.000247455 to 0.000247458
Heightened Def Con from 0.000247472 to 0.000247474
Heightened Def Con from 0.000247602 to 0.000247602
Heightened Def Con from 0.00024843 to 0.00024843
Heightened Def Con from 0.000248439 to 0.000248442
Heightened Def Con from 0.000248443 to 0.000248445
Heightened Def Con from 0.000248619 to 0.000248621
Heightened Def Con from 0.000248701 to 0.000248703
Heightened Def Con from 0.000248704 to 0.000248704
Heightened Def Con from 0.000248894 to 0.000248894
Heightened Def Con from 0.000248894 to 0.000248896
Heightened Def Con from 0.000249198 to 0.000249201
Heightened Def Con from 0.000249215 to 0.000249216
Heightened Def Con from 0.00024929 to 0.000249293
Heightened Def Con from 0.000249361 to 0.000249361
Heightened Def Con from 0.000249361 to 0.000249361
Heightened Def Con from 0.000249362 to 0.000249364
Heightened Def Con from 0.000249364 to 0.000249373
Heightened Def Con from 0.000249373 to 0.000249375
Heightened Def Con from 0.000249436 to 0.000249436
Heightened Def Con from 0.000249447 to 0.000249447
Heightened Def Con from 0.000249466 to 0.000249468
Heightened Def Con from 0.000249566 to 0.000249566
Heightened Def Con from 0.000249577 to 0.000249577
Heightened Def Con from 0.000249585 to 0.000249588
Heightened Def Con from 0.0002496 to 0.000249603
Heightened Def Con from 0.000249605 to 0.000249606
Heightened Def Con from 0.000249607 to 0.000249608
Heightened Def Con from 0.000249628 to 0.00024963
Heightened Def Con from 0.000249636 to 0.000249637
Heightened Def Con from 0.000249641 to 0.000249641
Heightened Def Con from 0.000249646 to 0.000249649
Heightened Def Con from 0.000250144 to 0.000250144
Heightened Def Con from 0.000250145 to 0.000250148
Heightened Def Con from 0.000250149 to 0.000250152
Heightened Def Con from 0.000250154 to 0.000250155
Heightened Def Con from 0.000250155 to 0.000250158
Heightened Def Con from 0.000250158 to 0.00025016
Heightened Def Con from 0.000250163 to 0.000250165
Heightened Def Con from 0.000250189 to 0.000250192
Heightened Def Con from 0.000250197 to 0.0002502
Heightened Def Con from 0.000250201 to 0.000250202
Heightened Def Con from 0.000250203 to 0.000250203
Heightened Def Con from 0.000250203 to 0.000250203
Heightened Def Con from 0.000250203 to 0.000250204
Heightened Def Con from 0.000250318 to 0.000250318
Heightened Def Con from 0.000250319 to 0.000250321
Heightened Def Con from 0.000250325 to 0.000250325
Heightened Def Con from 0.000250352 to 0.000250352
Heightened Def Con from 0.00025037 to 0.000250371
Heightened Def Con from 0.000250371 to 0.000250371
Heightened Def Con from 0.000250371 to 0.000250371
Heightened Def Con from 0.000250372 to 0.000250375
Heightened Def Con from 0.000250378 to 0.000250381
Heightened Def Con from 0.000250383 to 0.000250384
Heightened Def Con from 0.000250385 to 0.000250385
Heightened Def Con from 0.000250386 to 0.000250387
Heightened Def Con from 0.000250387 to 0.000250388
Heightened Def Con from 0.000250398 to 0.000250398
Heightened Def Con from 0.000250398 to 0.0002504
Heightened Def Con from 0.0002504 to 0.000250401
Heightened Def Con from 0.000250401 to 0.000250403
Heightened Def Con from 0.000250403 to 0.000250405
Heightened Def Con from 0.000250405 to 0.000250406
Heightened Def Con from 0.000250407 to 0.00025041
Heightened Def Con from 0.000250414 to 0.000250417
Heightened Def Con from 0.000250417 to 0.000250417
Heightened Def Con from 0.000250417 to 0.00025042
Heightened Def Con from 0.000250425 to 0.000250426
Heightened Def Con from 0.000250427 to 0.00025043
Heightened Def Con from 0.000250434 to 0.000250435
Heightened Def Con from 0.000250435 to 0.000250435
Heightened Def Con from 0.000250435 to 0.000250435
Heightened Def Con from 0.000250435 to 0.000250436
Heightened Def Con from 0.000250465 to 0.000250465
Heightened Def Con from 0.000250511 to 0.000250512
Heightened Def Con from 0.000250534 to 0.000250536
Heightened Def Con from 0.000250576 to 0.000250577
Heightened Def Con from 0.000250586 to 0.000250589
Heightened Def Con from 0.000250604 to 0.000250606
Heightened Def Con from 0.000250746 to 0.000250746
Heightened Def Con from 0.000250746 to 0.000250746
Heightened Def Con from 0.000250751 to 0.000250753
Heightened Def Con from 0.000250756 to 0.000250757
Heightened Def Con from 0.000250757 to 0.00025076
Heightened Def Con from 0.000250762 to 0.000250765
Heightened Def Con from 0.000250765 to 0.000250765
Heightened Def Con from 0.000250766 to 0.000250769
Heightened Def Con from 0.000250775 to 0.000250776
Heightened Def Con from 0.000250784 to 0.000250787
Heightened Def Con from 0.000250791 to 0.000250794
Heightened Def Con from 0.000250798 to 0.000250801
Heightened Def Con from 0.000250808 to 0.000250808
Heightened Def Con from 0.000250808 to 0.000250809
Heightened Def Con from 0.000250809 to 0.000250811
Heightened Def Con from 0.000250812 to 0.000250814
Heightened Def Con from 0.000250814 to 0.000250817
Heightened Def Con from 0.000250831 to 0.000250834
Heightened Def Con from 0.000250875 to 0.000250876
Heightened Def Con from 0.000250878 to 0.000250878
Heightened Def Con from 0.000250878 to 0.000250879
Heightened Def Con from 0.000250879 to 0.000250882
Heightened Def Con from 0.000250887 to 0.00025089
Heightened Def Con from 0.00025093 to 0.00025093
Heightened Def Con from 0.000250934 to 0.000250937
Heightened Def Con from 0.000250951 to 0.000250951
Heightened Def Con from 0.000250951 to 0.000250953
Heightened Def Con from 0.000250955 to 0.000250957
Heightened Def Con from 0.000251007 to 0.00025101
Heightened Def Con from 0.00025101 to 0.000251012
Heightened Def Con from 0.000251013 to 0.000251013
Heightened Def Con from 0.000251013 to 0.000251016
Heightened Def Con from 0.000251022 to 0.000251023
Heightened Def Con from 0.000251023 to 0.000251024
Heightened Def Con from 0.000251027 to 0.00025103
Heightened Def Con from 0.000251113 to 0.000251114
Heightened Def Con from 0.000251114 to 0.000251117
Heightened Def Con from 0.000251169 to 0.000251169
Heightened Def Con from 0.000251177 to 0.000251177
Heightened Def Con from 0.000251177 to 0.000251177
Heightened Def Con from 0.000251178 to 0.000251179
Heightened Def Con from 0.000251239 to 0.00025124
Heightened Def Con from 0.000251241 to 0.000251242
Heightened Def Con from 0.000251258 to 0.000251258
Heightened Def Con from 0.000251261 to 0.000251261
Heightened Def Con from 0.000251261 to 0.000251261
Heightened Def Con from 0.000251261 to 0.000251261
Heightened Def Con from 0.000251272 to 0.000251274
Heightened Def Con from 0.000251274 to 0.000251274
Heightened Def Con from 0.000251274 to 0.000251277
Heightened Def Con from 0.000251277 to 0.000251277
Heightened Def Con from 0.000251277 to 0.000251278
Heightened Def Con from 0.000251282 to 0.000251282
Heightened Def Con from 0.000251282 to 0.000251284
Heightened Def Con from 0.000251284 to 0.000251284
Heightened Def Con from 0.000251284 to 0.000251287
Heightened Def Con from 0.000251294 to 0.000251295
Heightened Def Con from 0.000251295 to 0.000251296
Heightened Def Con from 0.000251296 to 0.000251297
Heightened Def Con from 0.000251298 to 0.000251298
Heightened Def Con from 0.000251298 to 0.000251301
Heightened Def Con from 0.000251309 to 0.000251309
Heightened Def Con from 0.000251309 to 0.000251312
Heightened Def Con from 0.000251373 to 0.000251374
Heightened Def Con from 0.000251374 to 0.000251374
Heightened Def Con from 0.000251412 to 0.000251414
Heightened Def Con from 0.000252078 to 0.00025208
Heightened Def Con from 0.000252098 to 0.000252098
Heightened Def Con from 0.000252098 to 0.0002521
Heightened Def Con from 0.000252436 to 0.000252436
Heightened Def Con from 0.000252499 to 0.000252499
Heightened Def Con from 0.000252499 to 0.000252501
Heightened Def Con from 0.000252544 to 0.000252545
Heightened Def Con from 0.000252757 to 0.000252757
Heightened Def Con from 0.000252758 to 0.000252759
Heightened Def Con from 0.000252759 to 0.000252759
Heightened Def Con from 0.000253032 to 0.000253032
Heightened Def Con from 0.000253044 to 0.000253045
Heightened Def Con from 0.000253045 to 0.000253047
Heightened Def Con from 0.000253065 to 0.000253067
Heightened Def Con from 0.000253079 to 0.00025308
Heightened Def Con from 0.00025308 to 0.000253082
Heightened Def Con from 0.00025365 to 0.000253652
Heightened Def Con from 0.000253852 to 0.000253854
Heightened Def Con from 0.000254109 to 0.000254112
Heightened Def Con from 0.000254305 to 0.000254306
Heightened Def Con from 0.000254731 to 0.000254731
Heightened Def Con from 0.000254886 to 0.000254888
Heightened Def Con from 0.000255071 to 0.000255073
Heightened Def Con from 0.00025544 to 0.00025544
Heightened Def Con from 0.000255658 to 0.00025566
Heightened Def Con from 0.000255799 to 0.000255799
Heightened Def Con from 0.000255799 to 0.000255799
Heightened Def Con from 0.000255807 to 0.000255809
Heightened Def Con from 0.000256875 to 0.000256875
Heightened Def Con from 0.000257065 to 0.000257067
Heightened Def Con from 0.000257072 to 0.000257074
Heightened Def Con from 0.000257205 to 0.000257207
Heightened Def Con from 0.000258837 to 0.000258837
Heightened Def Con from 0.000258837 to 0.000258837
Heightened Def Con from 0.000258838 to 0.000258838
Heightened Def Con from 0.000258926 to 0.000258927
Heightened Def Con from 0.000259407 to 0.000259407
Heightened Def Con from 0.000260532 to 0.000260533
Heightened Def Con from 0.000260533 to 0.000260535
Heightened Def Con from 0.000260736 to 0.000260737
Heightened Def Con from 0.000260737 to 0.000260739
Heightened Def Con from 0.000260745 to 0.000260747
Heightened Def Con from 0.000261229 to 0.000261231
Heightened Def Con from 0.000261355 to 0.000261356
Heightened Def Con from 0.000261446 to 0.000261446
Heightened Def Con from 0.000261858 to 0.00026186
Heightened Def Con from 0.000262351 to 0.000262351
Heightened Def Con from 0.000262455 to 0.000262458
Heightened Def Con from 0.000262783 to 0.000262786
Heightened Def Con from 0.000262818 to 0.000262819
Heightened Def Con from 0.000262938 to 0.000262938
Heightened Def Con from 0.000263139 to 0.000263142
Heightened Def Con from 0.000263466 to 0.000263469
Heightened Def Con from 0.000263483 to 0.000263484
Heightened Def Con from 0.000263509 to 0.00026351
Heightened Def Con from 0.000264031 to 0.000264034
Heightened Def Con from 0.000264739 to 0.000264742
Heightened Def Con from 0.000264755 to 0.000264755
Heightened Def Con from 0.000264868 to 0.000264871
Heightened Def Con from 0.000264887 to 0.00026489
Heightened Def Con from 0.000264928 to 0.000264929
Heightened Def Con from 0.000265177 to 0.000265177
Heightened Def Con from 0.000265345 to 0.000265347
Heightened Def Con from 0.000265497 to 0.000265497
Heightened Def Con from 0.000265505 to 0.000265508
Heightened Def Con from 0.000265572 to 0.000265573
Heightened Def Con from 0.000265583 to 0.000265586
Heightened Def Con from 0.000265613 to 0.000265616
Heightened Def Con from 0.000266238 to 0.000266238
Heightened Def Con from 0.000266304 to 0.000266306
Heightened Def Con from 0.000266664 to 0.000266664
Heightened Def Con from 0.000266695 to 0.000266698
Heightened Def Con from 0.000266904 to 0.000266904
Heightened Def Con from 0.000267265 to 0.000267265
Heightened Def Con from 0.000267265 to 0.000267268
Heightened Def Con from 0.000267652 to 0.000267655
Heightened Def Con from 0.000267946 to 0.000267949
Heightened Def Con from 0.000267972 to 0.000267972
Heightened Def Con from 0.000268173 to 0.000268173
Heightened Def Con from 0.000268174 to 0.000268176
Heightened Def Con from 0.000268176 to 0.000268178
Heightened Def Con from 0.000268181 to 0.000268186
Heightened Def Con from 0.000268199 to 0.000268199
Heightened Def Con from 0.000268273 to 0.000268273
Heightened Def Con from 0.000268277 to 0.000268279
Heightened Def Con from 0.00026828 to 0.00026828
Heightened Def Con from 0.00026828 to 0.000268281
Heightened Def Con from 0.000268293 to 0.000268293
Heightened Def Con from 0.000268421 to 0.000268424
Heightened Def Con from 0.00026843 to 0.000268431
Heightened Def Con from 0.00026846 to 0.000268463
Heightened Def Con from 0.000268506 to 0.000268506
Heightened Def Con from 0.000268737 to 0.000268737
Heightened Def Con from 0.000268869 to 0.000268871
Heightened Def Con from 0.000269396 to 0.000269396
Heightened Def Con from 0.000269415 to 0.000269416
Heightened Def Con from 0.000269416 to 0.000269418
Heightened Def Con from 0.000269418 to 0.000269418
Heightened Def Con from 0.000269418 to 0.000269419
Heightened Def Con from 0.000269419 to 0.000269421
Heightened Def Con from 0.000269421 to 0.000269422
Heightened Def Con from 0.000269422 to 0.000269425
Heightened Def Con from 0.000269427 to 0.000269429
Heightened Def Con from 0.00026943 to 0.000269433
Heightened Def Con from 0.000269443 to 0.000269446
Heightened Def Con from 0.000269471 to 0.000269473
Heightened Def Con from 0.000269474 to 0.000269476
Heightened Def Con from 0.00026968 to 0.000269682
Heightened Def Con from 0.000269752 to 0.000269753
Heightened Def Con from 0.00026977 to 0.000269772
Heightened Def Con from 0.000269996 to 0.000269998
Heightened Def Con from 0.000270144 to 0.000270146
Heightened Def Con from 0.000271061 to 0.000271062
Heightened Def Con from 0.00027242 to 0.00027242
Heightened Def Con from 0.000272665 to 0.000272666
Heightened Def Con from 0.000272753 to 0.000272755
Heightened Def Con from 0.000272766 to 0.000272767
Heightened Def Con from 0.000272878 to 0.00027288
Heightened Def Con from 0.000273048 to 0.000273049
Heightened Def Con from 0.000273049 to 0.000273049
Heightened Def Con from 0.000273074 to 0.000273076
Heightened Def Con from 0.000273242 to 0.000273242
Heightened Def Con from 0.000273244 to 0.000273244
Heightened Def Con from 0.000273244 to 0.000273246
Heightened Def Con from 0.000273253 to 0.000273255
Heightened Def Con from 0.000273259 to 0.00027326
Heightened Def Con from 0.00027329 to 0.000273292
Heightened Def Con from 0.000273299 to 0.0002733
Heightened Def Con from 0.000273305 to 0.000273307
Heightened Def Con from 0.000273487 to 0.000273489
Heightened Def Con from 0.000273497 to 0.000273499
Heightened Def Con from 0.000273519 to 0.000273521
Heightened Def Con from 0.000273538 to 0.000273538
Heightened Def Con from 0.000274122 to 0.000274122
Heightened Def Con from 0.000274122 to 0.000274123
Heightened Def Con from 0.000274123 to 0.000274123
Heightened Def Con from 0.000274123 to 0.000274123
Heightened Def Con from 0.000274142 to 0.000274144
Heightened Def Con from 0.00027422 to 0.000274222
Heightened Def Con from 0.000274222 to 0.000274222
Heightened Def Con from 0.000274414 to 0.000274414
Heightened Def Con from 0.000274425 to 0.000274427
Heightened Def Con from 0.000274429 to 0.000274431
Heightened Def Con from 0.000274466 to 0.000274467
Heightened Def Con from 0.000274467 to 0.000274468
Heightened Def Con from 0.000274469 to 0.00027447
Heightened Def Con from 0.000274676 to 0.000274678
Heightened Def Con from 0.000274802 to 0.000274804
Heightened Def Con from 0.00027482 to 0.000274821
Heightened Def Con from 0.000274859 to 0.000274861
Heightened Def Con from 0.000274921 to 0.000274923
Heightened Def Con from 0.000274996 to 0.000274998
Heightened Def Con from 0.000275027 to 0.000275029
Heightened Def Con from 0.000275059 to 0.000275061
Heightened Def Con from 0.000275563 to 0.000275563
Heightened Def Con from 0.000276035 to 0.000276037
Heightened Def Con from 0.000276274 to 0.000276275
Heightened Def Con from 0.000276409 to 0.000276409
Heightened Def Con from 0.000276616 to 0.000276617
Heightened Def Con from 0.000277189 to 0.00027719
Heightened Def Con from 0.000277192 to 0.000277194
Heightened Def Con from 0.00027724 to 0.000277242
Heightened Def Con from 0.000277677 to 0.000277679
Heightened Def Con from 0.000277725 to 0.000277727
Heightened Def Con from 0.000277923 to 0.000277925
Heightened Def Con from 0.000278088 to 0.00027809
Heightened Def Con from 0.00027826 to 0.000278262
Heightened Def Con from 0.000278277 to 0.000278278
Heightened Def Con from 0.000278441 to 0.000278443
Heightened Def Con from 0.000278989 to 0.00027899
Heightened Def Con from 0.000278996 to 0.000278997
Heightened Def Con from 0.000279627 to 0.000279629
Heightened Def Con from 0.000279871 to 0.000279873
Heightened Def Con from 0.000280083 to 0.000280086
Heightened Def Con from 0.000280443 to 0.000280446
Heightened Def Con from 0.00028045 to 0.000280453
Heightened Def Con from 0.000280517 to 0.00028052
Heightened Def Con from 0.000280778 to 0.000280779
Heightened Def Con from 0.000280779 to 0.000280781
Heightened Def Con from 0.000280843 to 0.000280844
Heightened Def Con from 0.000280884 to 0.000280887
Heightened Def Con from 0.000281726 to 0.000281726
Heightened Def Con from 0.000282273 to 0.000282273
Heightened Def Con from 0.000282273 to 0.000282274
Heightened Def Con from 0.000282366 to 0.000282369
Heightened Def Con from 0.000282716 to 0.000282719
Heightened Def Con from 0.000283423 to 0.000283424
Heightened Def Con from 0.000283426 to 0.000283429
Heightened Def Con from 0.000283498 to 0.000283501
Heightened Def Con from 0.000283547 to 0.000283547
Heightened Def Con from 0.000283548 to 0.000283548
Heightened Def Con from 0.000283579 to 0.000283582
Heightened Def Con from 0.000283665 to 0.000283665
Heightened Def Con from 0.000283773 to 0.000283774
Heightened Def Con from 0.000283919 to 0.000283922
Heightened Def Con from 0.00028417 to 0.000284173
Heightened Def Con from 0.000284186 to 0.000284189
Heightened Def Con from 0.00028434 to 0.000284343
Heightened Def Con from 0.000284512 to 0.000284512
Heightened Def Con from 0.000284512 to 0.000284512
Heightened Def Con from 0.000284733 to 0.000284735
Heightened Def Con from 0.000284813 to 0.000284816
Heightened Def Con from 0.000284825 to 0.000284826
Heightened Def Con from 0.000284843 to 0.000284846
Heightened Def Con from 0.000284855 to 0.000284857
Heightened Def Con from 0.000284891 to 0.000284893
Heightened Def Con from 0.000284901 to 0.000284903
Heightened Def Con from 0.000284904 to 0.000284904
Heightened Def Con from 0.000284904 to 0.000284906
Heightened Def Con from 0.000284906 to 0.000284906
Heightened Def Con from 0.000284906 to 0.000284909
Heightened Def Con from 0.000284918 to 0.000284918
Heightened Def Con from 0.000284919 to 0.000284922
Heightened Def Con from 0.000284922 to 0.000284922
Heightened Def Con from 0.000284922 to 0.000284923
Heightened Def Con from 0.000284923 to 0.000284923
Heightened Def Con from 0.000284923 to 0.000284924
Heightened Def Con from 0.000284926 to 0.000284927
Heightened Def Con from 0.000284927 to 0.000284928
Heightened Def Con from 0.000284932 to 0.000284935
Heightened Def Con from 0.000284935 to 0.000284935
Heightened Def Con from 0.000284935 to 0.000284937
Heightened Def Con from 0.000284937 to 0.000284938
Heightened Def Con from 0.000284938 to 0.000284939
Heightened Def Con from 0.000284939 to 0.000284939
Heightened Def Con from 0.000284939 to 0.00028494
Heightened Def Con from 0.00028494 to 0.000284943
Heightened Def Con from 0.000284943 to 0.000284943
Heightened Def Con from 0.000284943 to 0.000284946
Heightened Def Con from 0.000284948 to 0.00028495
Heightened Def Con from 0.00028495 to 0.00028495
Heightened Def Con from 0.00028495 to 0.000284951
Heightened Def Con from 0.000284952 to 0.000284955
Heightened Def Con from 0.000284964 to 0.000284966
Heightened Def Con from 0.000284966 to 0.000284969
Heightened Def Con from 0.000284986 to 0.000284989
Heightened Def Con from 0.000285 to 0.000285001
Heightened Def Con from 0.000285002 to 0.000285002
Heightened Def Con from 0.000285003 to 0.000285005
Heightened Def Con from 0.000285005 to 0.000285008
Heightened Def Con from 0.000285008 to 0.000285011
Heightened Def Con from 0.000285021 to 0.000285021
Heightened Def Con from 0.000285021 to 0.000285022
Heightened Def Con from 0.000285022 to 0.000285023
Heightened Def Con from 0.000285023 to 0.000285025
Heightened Def Con from 0.000285029 to 0.000285029
Heightened Def Con from 0.000285029 to 0.000285029
Heightened Def Con from 0.000285029 to 0.00028503
Heightened Def Con from 0.00028503 to 0.000285031
Heightened Def Con from 0.000285031 to 0.000285034
Heightened Def Con from 0.000285062 to 0.000285064
Heightened Def Con from 0.000285074 to 0.000285077
Heightened Def Con from 0.000285088 to 0.000285089
Heightened Def Con from 0.000285089 to 0.000285091
Heightened Def Con from 0.000285091 to 0.000285094
Heightened Def Con from 0.000285094 to 0.000285095
Heightened Def Con from 0.000285095 to 0.000285096
Heightened Def Con from 0.000285096 to 0.000285097
Heightened Def Con from 0.000285097 to 0.000285099
Heightened Def Con from 0.000285099 to 0.000285099
Heightened Def Con from 0.0002851 to 0.0002851
Heightened Def Con from 0.0002851 to 0.0002851
Heightened Def Con from 0.0002851 to 0.0002851
Heightened Def Con from 0.0002851 to 0.000285101
Heightened Def Con from 0.000285101 to 0.000285101
Heightened Def Con from 0.000285102 to 0.000285104
Heightened Def Con from 0.000285104 to 0.000285106
Heightened Def Con from 0.000285106 to 0.000285109
Heightened Def Con from 0.000285121 to 0.000285121
Heightened Def Con from 0.000285122 to 0.000285125
Heightened Def Con from 0.000285131 to 0.000285133
Heightened Def Con from 0.000285133 to 0.000285134
Heightened Def Con from 0.000285134 to 0.000285135
Heightened Def Con from 0.000285136 to 0.000285138
Heightened Def Con from 0.000285138 to 0.000285139
Heightened Def Con from 0.000285139 to 0.000285139
Heightened Def Con from 0.000285139 to 0.000285141
Heightened Def Con from 0.000285141 to 0.000285144
Heightened Def Con from 0.000285156 to 0.000285156
Heightened Def Con from 0.000285157 to 0.00028516
Heightened Def Con from 0.000285166 to 0.000285169
Heightened Def Con from 0.000285175 to 0.000285175
Heightened Def Con from 0.000285176 to 0.000285179
Heightened Def Con from 0.000285181 to 0.000285182
Heightened Def Con from 0.000285182 to 0.000285182
Heightened Def Con from 0.000285182 to 0.000285183
Heightened Def Con from 0.000285183 to 0.000285184
Heightened Def Con from 0.000285184 to 0.000285184
Heightened Def Con from 0.000285184 to 0.000285185
Heightened Def Con from 0.000285187 to 0.000285188
Heightened Def Con from 0.000285188 to 0.000285188
Heightened Def Con from 0.00028519 to 0.000285193
Heightened Def Con from 0.000285212 to 0.000285213
Heightened Def Con from 0.000285213 to 0.000285215
Heightened Def Con from 0.000285217 to 0.00028522
Heightened Def Con from 0.000285249 to 0.000285249
Heightened Def Con from 0.000285251 to 0.000285254
Heightened Def Con from 0.000285255 to 0.000285255
Heightened Def Con from 0.000285255 to 0.000285257
Heightened Def Con from 0.000285257 to 0.000285257
Heightened Def Con from 0.000285257 to 0.000285259
Heightened Def Con from 0.000285259 to 0.000285259
Heightened Def Con from 0.000285259 to 0.000285259
Heightened Def Con from 0.000285259 to 0.000285259
Heightened Def Con from 0.00028526 to 0.00028526
Heightened Def Con from 0.00028526 to 0.00028526
Heightened Def Con from 0.00028526 to 0.00028526
Heightened Def Con from 0.00028526 to 0.00028526
Heightened Def Con from 0.00028526 to 0.00028526
Heightened Def Con from 0.00028526 to 0.000285262
Heightened Def Con from 0.000285262 to 0.000285266
Heightened Def Con from 0.000285266 to 0.000285267
Heightened Def Con from 0.000285267 to 0.000285267
Heightened Def Con from 0.000285267 to 0.000285268
Heightened Def Con from 0.000285268 to 0.000285272
Heightened Def Con from 0.000285276 to 0.000285279
Heightened Def Con from 0.00028528 to 0.00028528
Heightened Def Con from 0.000285281 to 0.000285284
Heightened Def Con from 0.000285308 to 0.00028531
Heightened Def Con from 0.00028531 to 0.000285312
Heightened Def Con from 0.000285313 to 0.000285313
Heightened Def Con from 0.000285313 to 0.000285314
Heightened Def Con from 0.000285314 to 0.000285315
Heightened Def Con from 0.000285316 to 0.000285316
Heightened Def Con from 0.000285316 to 0.000285317
Heightened Def Con from 0.000285319 to 0.000285322
Heightened Def Con from 0.000285338 to 0.000285339
Heightened Def Con from 0.000285339 to 0.000285339
Heightened Def Con from 0.000285339 to 0.00028534
Heightened Def Con from 0.00028534 to 0.00028534
Heightened Def Con from 0.00028534 to 0.00028534
Heightened Def Con from 0.00028534 to 0.00028534
Heightened Def Con from 0.00028534 to 0.00028534
Heightened Def Con from 0.00028534 to 0.00028534
Heightened Def Con from 0.00028534 to 0.000285341
Heightened Def Con from 0.000285341 to 0.000285342
Heightened Def Con from 0.000285343 to 0.000285344
Heightened Def Con from 0.000285344 to 0.000285344
Heightened Def Con from 0.000285344 to 0.000285344
Heightened Def Con from 0.000285344 to 0.000285344
Heightened Def Con from 0.000285344 to 0.000285344
Heightened Def Con from 0.000285344 to 0.000285344
Heightened Def Con from 0.000285344 to 0.000285344
Heightened Def Con from 0.000285344 to 0.000285345
Heightened Def Con from 0.000285345 to 0.000285345
Heightened Def Con from 0.000285345 to 0.000285345
Heightened Def Con from 0.000285345 to 0.000285345
Heightened Def Con from 0.000285345 to 0.000285345
Heightened Def Con from 0.000285345 to 0.000285345
Heightened Def Con from 0.000285345 to 0.000285345
Heightened Def Con from 0.000285345 to 0.000285345
Heightened Def Con from 0.000285345 to 0.000285345
Heightened Def Con from 0.000285345 to 0.000285348
Heightened Def Con from 0.000285349 to 0.000285351
Heightened Def Con from 0.000285351 to 0.000285351
Heightened Def Con from 0.000285351 to 0.000285354
Heightened Def Con from 0.000285354 to 0.000285356
Heightened Def Con from 0.000285356 to 0.00028536
Heightened Def Con from 0.00028536 to 0.000285364
Heightened Def Con from 0.000285364 to 0.000285364
Heightened Def Con from 0.000285364 to 0.000285364
Heightened Def Con from 0.000285364 to 0.000285367
Heightened Def Con from 0.000285367 to 0.000285369
Heightened Def Con from 0.000285369 to 0.00028537
Heightened Def Con from 0.00028537 to 0.000285373
Heightened Def Con from 0.00028538 to 0.000285381
Heightened Def Con from 0.000285381 to 0.000285384
Heightened Def Con from 0.00028539 to 0.000285391
Heightened Def Con from 0.000285391 to 0.000285393
Heightened Def Con from 0.000285393 to 0.000285394
Heightened Def Con from 0.000285394 to 0.000285394
Heightened Def Con from 0.000285395 to 0.000285395
Heightened Def Con from 0.000285395 to 0.000285397
Heightened Def Con from 0.000285397 to 0.0002854
Heightened Def Con from 0.000285406 to 0.000285407
Heightened Def Con from 0.000285407 to 0.000285408
Heightened Def Con from 0.000285408 to 0.000285409
Heightened Def Con from 0.000285409 to 0.000285412
Heightened Def Con from 0.000285412 to 0.000285413
Heightened Def Con from 0.000285413 to 0.000285414
Heightened Def Con from 0.000285415 to 0.000285415
Heightened Def Con from 0.000285416 to 0.000285417
Heightened Def Con from 0.000285417 to 0.000285418
Heightened Def Con from 0.000285418 to 0.000285419
Heightened Def Con from 0.000285419 to 0.000285422
Heightened Def Con from 0.000285422 to 0.000285422
Heightened Def Con from 0.000285422 to 0.000285425
Heightened Def Con from 0.000285425 to 0.000285427
Heightened Def Con from 0.00028543 to 0.000285432
Heightened Def Con from 0.000285469 to 0.000285471
Heightened Def Con from 0.000285472 to 0.000285474
Heightened Def Con from 0.000285522 to 0.000285525
Heightened Def Con from 0.000285531 to 0.000285535
Heightened Def Con from 0.00028554 to 0.000285542
Heightened Def Con from 0.000285542 to 0.000285542
Heightened Def Con from 0.000285603 to 0.000285605
Heightened Def Con from 0.000285625 to 0.000285625
Heightened Def Con from 0.000285625 to 0.000285626
Heightened Def Con from 0.000286366 to 0.000286368
Heightened Def Con from 0.000287071 to 0.000287073
Heightened Def Con from 0.000287216 to 0.000287218
Heightened Def Con from 0.000287359 to 0.000287359
Heightened Def Con from 0.000287745 to 0.000287746
Heightened Def Con from 0.00028888 to 0.000288882
Heightened Def Con from 0.000289053 to 0.000289055
Heightened Def Con from 0.000290062 to 0.000290064
Heightened Def Con from 0.000290274 to 0.000290274
Heightened Def Con from 0.000290673 to 0.000290673
Heightened Def Con from 0.000290677 to 0.000290678
Heightened Def Con from 0.000290981 to 0.000290981
Heightened Def Con from 0.000291057 to 0.000291057
Heightened Def Con from 0.000291057 to 0.000291057
Heightened Def Con from 0.000291201 to 0.000291203
Heightened Def Con from 0.000291313 to 0.000291315
Heightened Def Con from 0.000291687 to 0.000291689
Heightened Def Con from 0.000291771 to 0.000291771
Heightened Def Con from 0.000291772 to 0.000291774
Heightened Def Con from 0.000291792 to 0.000291794
Heightened Def Con from 0.00029237 to 0.000292371
Heightened Def Con from 0.000292557 to 0.000292558
Heightened Def Con from 0.000292578 to 0.000292582
Heightened Def Con from 0.000292602 to 0.000292604
Heightened Def Con from 0.000292622 to 0.000292624
Heightened Def Con from 0.000292769 to 0.000292771
Heightened Def Con from 0.000292804 to 0.000292806
Heightened Def Con from 0.000292823 to 0.000292825
Heightened Def Con from 0.000292825 to 0.000292827
Heightened Def Con from 0.000292827 to 0.000292829
Heightened Def Con from 0.000292829 to 0.000292831
Heightened Def Con from 0.000292874 to 0.000292875
Heightened Def Con from 0.000292875 to 0.000292875
Heightened Def Con from 0.000292876 to 0.000292877
Heightened Def Con from 0.000292881 to 0.000292883
Heightened Def Con from 0.000292883 to 0.000292885
Heightened Def Con from 0.000292885 to 0.000292885
Heightened Def Con from 0.000292885 to 0.000292887
Heightened Def Con from 0.000292887 to 0.000292888
Heightened Def Con from 0.000292888 to 0.000292888
Heightened Def Con from 0.000292888 to 0.000292888
Heightened Def Con from 0.000292891 to 0.000292891
Heightened Def Con from 0.000292892 to 0.000292894
Heightened Def Con from 0.000292928 to 0.00029293
Heightened Def Con from 0.000292991 to 0.000292991
Heightened Def Con from 0.000292991 to 0.000292993
Heightened Def Con from 0.000292996 to 0.000292998
Heightened Def Con from 0.000293253 to 0.000293255
Heightened Def Con from 0.000293258 to 0.00029326
Heightened Def Con from 0.000293266 to 0.000293268
Heightened Def Con from 0.000293278 to 0.000293278
Heightened Def Con from 0.000293278 to 0.000293281
Heightened Def Con from 0.000293287 to 0.000293289
Heightened Def Con from 0.000293292 to 0.000293294
Heightened Def Con from 0.000293294 to 0.000293297
Heightened Def Con from 0.0002933 to 0.000293301
Heightened Def Con from 0.000293301 to 0.000293304
Heightened Def Con from 0.000293304 to 0.000293307
Heightened Def Con from 0.00029341 to 0.000293412
Heightened Def Con from 0.000293414 to 0.000293415
Heightened Def Con from 0.000293415 to 0.000293418
Heightened Def Con from 0.000293424 to 0.000293424
Heightened Def Con from 0.000293424 to 0.000293426
Heightened Def Con from 0.000293429 to 0.000293432
Heightened Def Con from 0.000293438 to 0.000293438
Heightened Def Con from 0.000293438 to 0.000293439
Heightened Def Con from 0.000293439 to 0.000293441
Heightened Def Con from 0.000293441 to 0.000293442
Heightened Def Con from 0.000293443 to 0.000293445
Heightened Def Con from 0.000293448 to 0.00029345
Heightened Def Con from 0.000293454 to 0.000293457
Heightened Def Con from 0.000293467 to 0.000293469
Heightened Def Con from 0.000293469 to 0.000293469
Heightened Def Con from 0.00029347 to 0.000293472
Heightened Def Con from 0.000293472 to 0.000293474
Heightened Def Con from 0.000293475 to 0.000293478
Heightened Def Con from 0.000293497 to 0.000293497
Heightened Def Con from 0.000293497 to 0.000293499
Heightened Def Con from 0.000293503 to 0.000293503
Heightened Def Con from 0.000293503 to 0.000293505
Heightened Def Con from 0.000293509 to 0.000293511
Heightened Def Con from 0.000293513 to 0.000293515
Heightened Def Con from 0.000293518 to 0.00029352
Heightened Def Con from 0.00029352 to 0.000293523
Heightened Def Con from 0.000293523 to 0.000293525
Heightened Def Con from 0.000293537 to 0.000293537
Heightened Def Con from 0.000293537 to 0.000293539
Heightened Def Con from 0.000293613 to 0.000293614
Heightened Def Con from 0.000293614 to 0.000293616
Heightened Def Con from 0.000293646 to 0.000293646
Heightened Def Con from 0.0002938 to 0.000293802
Heightened Def Con from 0.000293807 to 0.000293809
Heightened Def Con from 0.000293809 to 0.000293811
Heightened Def Con from 0.000293894 to 0.000293896
Heightened Def Con from 0.000293911 to 0.000293913
Heightened Def Con from 0.000294608 to 0.00029461
Heightened Def Con from 0.000294927 to 0.000294929
Heightened Def Con from 0.000295083 to 0.000295087
Heightened Def Con from 0.000295586 to 0.000295589
Heightened Def Con from 0.000295735 to 0.000295735
Heightened Def Con from 0.000295735 to 0.000295735
Heightened Def Con from 0.000295746 to 0.000295746
Heightened Def Con from 0.000295835 to 0.000295835
Heightened Def Con from 0.000296101 to 0.000296103
Heightened Def Con from 0.000296103 to 0.000296103
Heightened Def Con from 0.000296663 to 0.000296666
Heightened Def Con from 0.000296786 to 0.000296789
Heightened Def Con from 0.000296882 to 0.000296884
Heightened Def Con from 0.00029781 to 0.000297813
Heightened Def Con from 0.00029812 to 0.000298123
Heightened Def Con from 0.000298171 to 0.000298171
Heightened Def Con from 0.000298171 to 0.000298171
Heightened Def Con from 0.000298172 to 0.000298175
Heightened Def Con from 0.000298684 to 0.000298686
Heightened Def Con from 0.000298773 to 0.000298776
Heightened Def Con from 0.000298946 to 0.000298949
Heightened Def Con from 0.000299063 to 0.000299064
Heightened Def Con from 0.000299134 to 0.000299137
Heightened Def Con from 0.000299171 to 0.000299174
Heightened Def Con from 0.000299496 to 0.000299496
Heightened Def Con from 0.000299645 to 0.000299646
Heightened Def Con from 0.000299648 to 0.000299649
Heightened Def Con from 0.000299682 to 0.000299682
Heightened Def Con from 0.000299801 to 0.000299804
Heightened Def Con from 0.000300281 to 0.000300281
Heightened Def Con from 0.000300443 to 0.000300443
Heightened Def Con from 0.000300545 to 0.000300546
Heightened Def Con from 0.00030113 to 0.00030113
Heightened Def Con from 0.000301133 to 0.000301136
Heightened Def Con from 0.000301151 to 0.000301152
Heightened Def Con from 0.000301153 to 0.000301155
Heightened Def Con from 0.000301159 to 0.000301162
[...]
Heightened Def Con from 0.000405163 to 0.000405165
Heightened Def Con from 0.000405419 to 0.000405421
Heightened Def Con from 0.00040546 to 0.000405462
Heightened Def Con from 0.000405465 to 0.000405465
Heightened Def Con from 0.000405469 to 0.00040547
Heightened Def Con from 0.000405909 to 0.000405911
Heightened Def Con from 0.000406493 to 0.000406494
Heightened Def Con from 0.000406499 to 0.0004065
Heightened Def Con from 0.000406509 to 0.00040651
Heightened Def Con from 0.000406553 to 0.000406555
Heightened Def Con from 0.000406581 to 0.000406582
Heightened Def Con from 0.000406714 to 0.000406716
Heightened Def Con from 0.000406995 to 0.000406997
Heightened Def Con from 0.00040755 to 0.000407553
Heightened Def Con from 0.000407556 to 0.000407559
Heightened Def Con from 0.000407657 to 0.00040766
Heightened Def Con from 0.000407776 to 0.000407776
Heightened Def Con from 0.000407781 to 0.000407783
Heightened Def Con from 0.000408022 to 0.000408025
Heightened Def Con from 0.000408026 to 0.000408026
Heightened Def Con from 0.000408033 to 0.000408033
Heightened Def Con from 0.000408036 to 0.000408036
Heightened Def Con from 0.000408107 to 0.000408108
Heightened Def Con from 0.000408109 to 0.00040811
Heightened Def Con from 0.000408112 to 0.000408112
Heightened Def Con from 0.000408126 to 0.000408129
Heightened Def Con from 0.000408132 to 0.000408133
Heightened Def Con from 0.00040827 to 0.000408273
Heightened Def Con from 0.000408323 to 0.000408323
Heightened Def Con from 0.000408343 to 0.000408344
Heightened Def Con from 0.000408348 to 0.000408349
Heightened Def Con from 0.000408349 to 0.00040835
Heightened Def Con from 0.00040837 to 0.000408372
Heightened Def Con from 0.000408403 to 0.000408403
Heightened Def Con from 0.000408404 to 0.000408407
Heightened Def Con from 0.000408408 to 0.000408408
Heightened Def Con from 0.00040841 to 0.000408412
Heightened Def Con from 0.000408415 to 0.000408417
Heightened Def Con from 0.000408426 to 0.000408428
Heightened Def Con from 0.000408561 to 0.000408563
Heightened Def Con from 0.000408846 to 0.000408846
Heightened Def Con from 0.000408877 to 0.000408877
Heightened Def Con from 0.000409055 to 0.000409057
Heightened Def Con from 0.000409144 to 0.000409146
Heightened Def Con from 0.000409347 to 0.000409347
Heightened Def Con from 0.000409421 to 0.000409423
Heightened Def Con from 0.00040947 to 0.000409471
Heightened Def Con from 0.00040948 to 0.00040948
Heightened Def Con from 0.000409609 to 0.000409609
Heightened Def Con from 0.000409612 to 0.000409615
Heightened Def Con from 0.000409616 to 0.000409618
Heightened Def Con from 0.000409624 to 0.000409624
Heightened Def Con from 0.000409647 to 0.000409649
Heightened Def Con from 0.00040965 to 0.000409652
Heightened Def Con from 0.000409654 to 0.000409655
Heightened Def Con from 0.000409661 to 0.000409663
Heightened Def Con from 0.000409703 to 0.000409705
Heightened Def Con from 0.000409802 to 0.000409802
Heightened Def Con from 0.000409803 to 0.000409805
Heightened Def Con from 0.000409971 to 0.000409971
Heightened Def Con from 0.000409971 to 0.000409974
Heightened Def Con from 0.000409977 to 0.000409977
Heightened Def Con from 0.000409988 to 0.000409991
Heightened Def Con from 0.000410088 to 0.000410088
Heightened Def Con from 0.000410088 to 0.00041009
Heightened Def Con from 0.000410122 to 0.000410124
Heightened Def Con from 0.000410189 to 0.000410189
Heightened Def Con from 0.000410322 to 0.000410322
Heightened Def Con from 0.000410331 to 0.000410331
Heightened Def Con from 0.000410557 to 0.000410559
Heightened Def Con from 0.00041085 to 0.000410852
Heightened Def Con from 0.000410887 to 0.000410887
Heightened Def Con from 0.000410996 to 0.000410998
Heightened Def Con from 0.000411144 to 0.000411146
Heightened Def Con from 0.000411184 to 0.000411186
Heightened Def Con from 0.000411609 to 0.000411611
Heightened Def Con from 0.000412145 to 0.000412147
Heightened Def Con from 0.000412149 to 0.000412149
Heightened Def Con from 0.000412157 to 0.000412159
Heightened Def Con from 0.000412297 to 0.000412299
Heightened Def Con from 0.000412443 to 0.000412444
Heightened Def Con from 0.000412477 to 0.000412479
Heightened Def Con from 0.000412694 to 0.000412695
Heightened Def Con from 0.000413101 to 0.000413104
Heightened Def Con from 0.000413302 to 0.000413302
Heightened Def Con from 0.000413874 to 0.000413875
Heightened Def Con from 0.000413996 to 0.000413996
Heightened Def Con from 0.000414122 to 0.000414122
Heightened Def Con from 0.000414132 to 0.000414134
Heightened Def Con from 0.000414134 to 0.000414135
Heightened Def Con from 0.000414147 to 0.000414148
Heightened Def Con from 0.000414259 to 0.000414261
Heightened Def Con from 0.000414578 to 0.00041458
Heightened Def Con from 0.000414774 to 0.000414776
Heightened Def Con from 0.000414789 to 0.00041479
Heightened Def Con from 0.000414794 to 0.000414797
Heightened Def Con from 0.000414894 to 0.000414895
Heightened Def Con from 0.000414948 to 0.000414949
Heightened Def Con from 0.000415048 to 0.00041505
Heightened Def Con from 0.000415079 to 0.00041508
Heightened Def Con from 0.00041508 to 0.000415081
Heightened Def Con from 0.000415103 to 0.000415105
Heightened Def Con from 0.000415312 to 0.000415312
Heightened Def Con from 0.000415312 to 0.000415313
Heightened Def Con from 0.000415425 to 0.000415427
Heightened Def Con from 0.000415428 to 0.00041543
Heightened Def Con from 0.000415704 to 0.000415704
Heightened Def Con from 0.000415841 to 0.000415842
Heightened Def Con from 0.000415913 to 0.000415914
Heightened Def Con from 0.000415984 to 0.000415987
Heightened Def Con from 0.000416191 to 0.000416191
Heightened Def Con from 0.000416216 to 0.000416217
Heightened Def Con from 0.000416217 to 0.00041622
Heightened Def Con from 0.000416617 to 0.000416619
Heightened Def Con from 0.00041685 to 0.000416853
Heightened Def Con from 0.000416932 to 0.000416935
Heightened Def Con from 0.000416948 to 0.000416949
Heightened Def Con from 0.000416949 to 0.00041695
Heightened Def Con from 0.000416957 to 0.00041696
Heightened Def Con from 0.000416968 to 0.00041697
Heightened Def Con from 0.000417029 to 0.000417029
Heightened Def Con from 0.00041703 to 0.00041703
Heightened Def Con from 0.000417037 to 0.000417037
Heightened Def Con from 0.000417055 to 0.000417055
Heightened Def Con from 0.0004172 to 0.000417202
Heightened Def Con from 0.000417249 to 0.000417249
Heightened Def Con from 0.00041726 to 0.000417264
Heightened Def Con from 0.000417385 to 0.000417386
Heightened Def Con from 0.00041768 to 0.000417681
Heightened Def Con from 0.000417687 to 0.000417687
Heightened Def Con from 0.00041769 to 0.00041769
Heightened Def Con from 0.000417759 to 0.000417759
Heightened Def Con from 0.000417768 to 0.000417768
Heightened Def Con from 0.000417772 to 0.000417772
Heightened Def Con from 0.000417772 to 0.000417772
Heightened Def Con from 0.000417773 to 0.000417773
Heightened Def Con from 0.000417773 to 0.000417773
Heightened Def Con from 0.000417785 to 0.000417785
Heightened Def Con from 0.000418188 to 0.00041819
Heightened Def Con from 0.000419149 to 0.000419151
Heightened Def Con from 0.000419155 to 0.000419155
Heightened Def Con from 0.000419235 to 0.000419236
Heightened Def Con from 0.000419253 to 0.000419255
Heightened Def Con from 0.000419326 to 0.000419328
Heightened Def Con from 0.000419721 to 0.000419723
Heightened Def Con from 0.000420195 to 0.000420195
Heightened Def Con from 0.000420571 to 0.000420573
Heightened Def Con from 0.000420608 to 0.000420608
Heightened Def Con from 0.000420972 to 0.000420974
Heightened Def Con from 0.000421102 to 0.000421102
Heightened Def Con from 0.000421105 to 0.000421106
Heightened Def Con from 0.00042126 to 0.00042126
Heightened Def Con from 0.000421354 to 0.000421356
Heightened Def Con from 0.000421404 to 0.000421405
Heightened Def Con from 0.000421405 to 0.000421407
Heightened Def Con from 0.000421553 to 0.000421554
Heightened Def Con from 0.000421555 to 0.000421555
Heightened Def Con from 0.000421556 to 0.000421558
Heightened Def Con from 0.000421585 to 0.000421585
Heightened Def Con from 0.000421585 to 0.000421586
Heightened Def Con from 0.000421608 to 0.00042161
Heightened Def Con from 0.000421781 to 0.000421783
Heightened Def Con from 0.000421793 to 0.000421795
Heightened Def Con from 0.000421805 to 0.000421807
Heightened Def Con from 0.000421807 to 0.000421808
Heightened Def Con from 0.00042188 to 0.00042188
Heightened Def Con from 0.000421968 to 0.000421968
Heightened Def Con from 0.000421969 to 0.000421969
Heightened Def Con from 0.000421969 to 0.000421971
Heightened Def Con from 0.000422174 to 0.000422174
Heightened Def Con from 0.000422257 to 0.000422259
Heightened Def Con from 0.000422278 to 0.00042228
Heightened Def Con from 0.000422335 to 0.000422337
Heightened Def Con from 0.000422476 to 0.000422477
Heightened Def Con from 0.000422479 to 0.000422482
Heightened Def Con from 0.000422484 to 0.000422485
Heightened Def Con from 0.000422485 to 0.000422488
Heightened Def Con from 0.000422488 to 0.000422491
Heightened Def Con from 0.000422505 to 0.000422508
Heightened Def Con from 0.000422511 to 0.000422511
Heightened Def Con from 0.000422513 to 0.000422516
Heightened Def Con from 0.000422536 to 0.000422538
Heightened Def Con from 0.000422543 to 0.000422543
Heightened Def Con from 0.000422544 to 0.000422545
Heightened Def Con from 0.000422545 to 0.000422548
Heightened Def Con from 0.000422548 to 0.000422551
Heightened Def Con from 0.000422638 to 0.00042264
Heightened Def Con from 0.000423016 to 0.000423016
Heightened Def Con from 0.000423019 to 0.000423022
Heightened Def Con from 0.000423057 to 0.000423058
Heightened Def Con from 0.000423201 to 0.000423204
Heightened Def Con from 0.000423252 to 0.000423252
Heightened Def Con from 0.000423307 to 0.000423308
Heightened Def Con from 0.000423643 to 0.000423646
Heightened Def Con from 0.000423741 to 0.000423741
Heightened Def Con from 0.000423742 to 0.000423743
Heightened Def Con from 0.000423781 to 0.000423782
Heightened Def Con from 0.000423806 to 0.000423806
Heightened Def Con from 0.000423956 to 0.000423956
Heightened Def Con from 0.000424131 to 0.000424132
Heightened Def Con from 0.000424222 to 0.000424225
Heightened Def Con from 0.000424603 to 0.000424606
Heightened Def Con from 0.000424707 to 0.000424707
Heightened Def Con from 0.000424763 to 0.000424766
Heightened Def Con from 0.000424843 to 0.000424843
Heightened Def Con from 0.000425116 to 0.000425116
Heightened Def Con from 0.000425462 to 0.000425464
Heightened Def Con from 0.000425472 to 0.000425475
Heightened Def Con from 0.000425478 to 0.000425481
Heightened Def Con from 0.000425618 to 0.00042562
Heightened Def Con from 0.000425624 to 0.000425624
Heightened Def Con from 0.000425624 to 0.000425625
Heightened Def Con from 0.000425632 to 0.000425635
Heightened Def Con from 0.000425709 to 0.000425709
Heightened Def Con from 0.000425709 to 0.00042571
Heightened Def Con from 0.000425719 to 0.00042572
Heightened Def Con from 0.000425721 to 0.000425721
Heightened Def Con from 0.000425722 to 0.000425722
Heightened Def Con from 0.000425722 to 0.000425725
Heightened Def Con from 0.000425729 to 0.000425729
Heightened Def Con from 0.000425732 to 0.000425733
Heightened Def Con from 0.000425846 to 0.000425846
Heightened Def Con from 0.000425913 to 0.000425914
Heightened Def Con from 0.000425915 to 0.000425917
Heightened Def Con from 0.000425926 to 0.000425926
Heightened Def Con from 0.000425926 to 0.000425927
Heightened Def Con from 0.000426431 to 0.000426432
Heightened Def Con from 0.000426461 to 0.000426463
Heightened Def Con from 0.000426552 to 0.000426553
Heightened Def Con from 0.000426632 to 0.000426634
Heightened Def Con from 0.000426641 to 0.000426643
Heightened Def Con from 0.000426804 to 0.000426806
Heightened Def Con from 0.000426973 to 0.000426984
Heightened Def Con from 0.000426989 to 0.000426991
Heightened Def Con from 0.000427051 to 0.000427051
Heightened Def Con from 0.000427056 to 0.000427059
Heightened Def Con from 0.000427065 to 0.000427065
Heightened Def Con from 0.000427079 to 0.000427082
Heightened Def Con from 0.000427571 to 0.000427572
Heightened Def Con from 0.000427925 to 0.000427927
Heightened Def Con from 0.000428436 to 0.000428438
Heightened Def Con from 0.000428504 to 0.000428505
Heightened Def Con from 0.000428616 to 0.000428618
Heightened Def Con from 0.00042869 to 0.000428691
Heightened Def Con from 0.00042871 to 0.000428712
Heightened Def Con from 0.000429205 to 0.000429205
Heightened Def Con from 0.000429218 to 0.000429218
Heightened Def Con from 0.000429219 to 0.000429219
Heightened Def Con from 0.000429322 to 0.000429324
Heightened Def Con from 0.000429367 to 0.00042937
Heightened Def Con from 0.000429372 to 0.000429375
Heightened Def Con from 0.000429385 to 0.000429388
Heightened Def Con from 0.000429397 to 0.000429398
Heightened Def Con from 0.000429399 to 0.000429399
Heightened Def Con from 0.000429401 to 0.000429404
Heightened Def Con from 0.000429508 to 0.000429508
Heightened Def Con from 0.000429586 to 0.000429587
Heightened Def Con from 0.00042966 to 0.000429661
Heightened Def Con from 0.000429925 to 0.000429926
Heightened Def Con from 0.000429927 to 0.000429928
Heightened Def Con from 0.00042995 to 0.00042995
Heightened Def Con from 0.000430059 to 0.000430061
Heightened Def Con from 0.000430101 to 0.000430102
Heightened Def Con from 0.000430717 to 0.000430719
Heightened Def Con from 0.000430891 to 0.000430893
Heightened Def Con from 0.000431149 to 0.000431151
Heightened Def Con from 0.000431252 to 0.000431252
Heightened Def Con from 0.000431254 to 0.000431256
Heightened Def Con from 0.000431462 to 0.000431465
Heightened Def Con from 0.000431514 to 0.000431515
Heightened Def Con from 0.000431663 to 0.000431664
Heightened Def Con from 0.000431664 to 0.000431667
Heightened Def Con from 0.000431686 to 0.000431689
Heightened Def Con from 0.00043176 to 0.000431763
Heightened Def Con from 0.000431876 to 0.000431879
Heightened Def Con from 0.000432026 to 0.000432029
Heightened Def Con from 0.000432385 to 0.000432386
Heightened Def Con from 0.000432694 to 0.000432694
Heightened Def Con from 0.000432695 to 0.000432698
Heightened Def Con from 0.000432924 to 0.000432927
Heightened Def Con from 0.000432999 to 0.000433002
Heightened Def Con from 0.000433145 to 0.000433148
Heightened Def Con from 0.000433296 to 0.000433299
Heightened Def Con from 0.000433517 to 0.000433518
Heightened Def Con from 0.000433781 to 0.000433783
Heightened Def Con from 0.000433858 to 0.00043386
Heightened Def Con from 0.000433912 to 0.000433915
Heightened Def Con from 0.00043393 to 0.000433932
Heightened Def Con from 0.00043396 to 0.000433961
Heightened Def Con from 0.000433997 to 0.000433998
Heightened Def Con from 0.000434089 to 0.00043409
Heightened Def Con from 0.000434093 to 0.000434097
Heightened Def Con from 0.000434097 to 0.000434099
Heightened Def Con from 0.000434099 to 0.0004341
Heightened Def Con from 0.000434101 to 0.000434109
Heightened Def Con from 0.000434134 to 0.000434134
Heightened Def Con from 0.000434134 to 0.000434137
Heightened Def Con from 0.000434161 to 0.000434164
Heightened Def Con from 0.000434179 to 0.000434179
Heightened Def Con from 0.00043418 to 0.00043418
Heightened Def Con from 0.000434181 to 0.000434183
Heightened Def Con from 0.000434184 to 0.000434184
Heightened Def Con from 0.000434188 to 0.000434189
Heightened Def Con from 0.000434193 to 0.000434198
Heightened Def Con from 0.000434203 to 0.000434203
Heightened Def Con from 0.000434203 to 0.000434209
Heightened Def Con from 0.000434222 to 0.000434224
Heightened Def Con from 0.000434308 to 0.000434309
Heightened Def Con from 0.000434309 to 0.000434312
Heightened Def Con from 0.000434383 to 0.000434384
Heightened Def Con from 0.000434389 to 0.000434392
Heightened Def Con from 0.000434393 to 0.000434393
Heightened Def Con from 0.000434395 to 0.000434399
Heightened Def Con from 0.000434443 to 0.000434445
Heightened Def Con from 0.000434654 to 0.000434655
Heightened Def Con from 0.000434762 to 0.000434764
Heightened Def Con from 0.000434986 to 0.000434988
Heightened Def Con from 0.000435259 to 0.000435261
Heightened Def Con from 0.000435551 to 0.000435551
Heightened Def Con from 0.000435551 to 0.000435553
Heightened Def Con from 0.000435991 to 0.000435993
Heightened Def Con from 0.00043622 to 0.00043622
Heightened Def Con from 0.000436233 to 0.000436235
Heightened Def Con from 0.000436245 to 0.000436246
Heightened Def Con from 0.000436479 to 0.00043648
Heightened Def Con from 0.000436947 to 0.000436947
Heightened Def Con from 0.000437236 to 0.000437238
Heightened Def Con from 0.000437401 to 0.000437402
Heightened Def Con from 0.000437604 to 0.000437605
Heightened Def Con from 0.00043791 to 0.000437912
Heightened Def Con from 0.000437963 to 0.000437965
Heightened Def Con from 0.000438421 to 0.000438421
Heightened Def Con from 0.000438433 to 0.000438437
Heightened Def Con from 0.000438443 to 0.000438446
Heightened Def Con from 0.000438721 to 0.000438723
Heightened Def Con from 0.000438726 to 0.000438726
Heightened Def Con from 0.00043873 to 0.00043873
Heightened Def Con from 0.000439488 to 0.000439489
Heightened Def Con from 0.000439533 to 0.000439535
Heightened Def Con from 0.000439545 to 0.000439548
Heightened Def Con from 0.000439678 to 0.000439681
Heightened Def Con from 0.000439749 to 0.000439749
Heightened Def Con from 0.000439753 to 0.000439754
Heightened Def Con from 0.000439852 to 0.000439853
Heightened Def Con from 0.00043993 to 0.000439933
Heightened Def Con from 0.000440251 to 0.000440253
Heightened Def Con from 0.000440429 to 0.000440431
Heightened Def Con from 0.000440525 to 0.000440526
Heightened Def Con from 0.000440922 to 0.000440923
Heightened Def Con from 0.000441295 to 0.000441295
Heightened Def Con from 0.000441431 to 0.000441432
Heightened Def Con from 0.000441433 to 0.000441436
Heightened Def Con from 0.000441806 to 0.000441809
Heightened Def Con from 0.000441956 to 0.000441956
Heightened Def Con from 0.000442157 to 0.00044216
Heightened Def Con from 0.000442233 to 0.000442233
Heightened Def Con from 0.000442333 to 0.000442334
Heightened Def Con from 0.000442402 to 0.000442403
Heightened Def Con from 0.000442482 to 0.000442482
Heightened Def Con from 0.000442486 to 0.000442486
Heightened Def Con from 0.000442497 to 0.0004425
Heightened Def Con from 0.000442507 to 0.000442507
Heightened Def Con from 0.000442681 to 0.000442684
Heightened Def Con from 0.000442689 to 0.000442689
Heightened Def Con from 0.000442695 to 0.000442696
Heightened Def Con from 0.000443342 to 0.000443342
Heightened Def Con from 0.000443355 to 0.000443355
Heightened Def Con from 0.000443562 to 0.000443564
Heightened Def Con from 0.000444037 to 0.000444037
Heightened Def Con from 0.000444528 to 0.00044453
Heightened Def Con from 0.000444695 to 0.000444697
Heightened Def Con from 0.000445148 to 0.000445149
Heightened Def Con from 0.000445149 to 0.00044515
Heightened Def Con from 0.000445153 to 0.000445154
Heightened Def Con from 0.000445238 to 0.000445238
Heightened Def Con from 0.000445239 to 0.000445239
Heightened Def Con from 0.000445242 to 0.000445242
Heightened Def Con from 0.000445243 to 0.000445244
Heightened Def Con from 0.000445251 to 0.000445252
Heightened Def Con from 0.000445259 to 0.00044526
Heightened Def Con from 0.000445264 to 0.000445265
Heightened Def Con from 0.000445369 to 0.000445369
Heightened Def Con from 0.0004455 to 0.0004455
Heightened Def Con from 0.000445542 to 0.000445542
Heightened Def Con from 0.000445544 to 0.000445546
Heightened Def Con from 0.00044563 to 0.000445632
Heightened Def Con from 0.000445715 to 0.000445717
Heightened Def Con from 0.000445799 to 0.000445801
Heightened Def Con from 0.000445859 to 0.00044586
Heightened Def Con from 0.000445884 to 0.000445886
Heightened Def Con from 0.0004459 to 0.000445901
Heightened Def Con from 0.000446052 to 0.000446054
Heightened Def Con from 0.000446297 to 0.000446297
Total elapsed time: 390.506 seconds.

