LTspice 24.0.12 for Windows
Circuit: * C:\Users\Luca Lanzillotta\Documents\GitHub\scales-hardware\imx8x_eps_leviathan\simulation_models\ltSpice\full_eps_sim\full_eps_sim.asc
Start Time: Fri Mar 13 19:40:47 2026
Questionable use of curly braces in "b呈_abmgate yint 0 v={if(v(a)>{{vthresh}},{{vdd}},{{vss}})}"
    Error: undefined symbol in: "if([v](a)>((vthresh)),((vdd)),((vss)))"
Questionable use of curly braces in "b呈_abmgate yint 0 v={if(v(a)>{{vthresh}},{{vss}},{{vdd}})}"
    Error: undefined symbol in: "if([v](a)>((vthresh)),((vss)),((vdd)))"
Questionable use of curly braces in "b呈_abmgate yint 0 v={if(v(a)>{{vthresh}}&v(b)>{{vthresh}},{{vdd}},{{vss}})}"
    Error: undefined symbol in: "if([v](a)>((vthresh))&v(b)>((vthresh)),((vdd)),((vss)))"
Questionable use of curly braces in "b呈_abmgate yint 0 v={if(v(a)>{{vthresh}},{{vss}},{{vdd}})}"
    Error: undefined symbol in: "if([v](a)>((vthresh)),((vss)),((vdd)))"
Questionable use of curly braces in "b呈_abmgate yint 0 v={if(v(a)>{{vthresh}},{{vdd}},{{vss}})}"
    Error: undefined symbol in: "if([v](a)>((vthresh)),((vdd)),((vss)))"
Questionable use of curly braces in "b呈_abmgate yint 0 v={if(v(a)>{{vthresh}},{{vdd}},{{vss}})}"
    Error: undefined symbol in: "if([v](a)>((vthresh)),((vdd)),((vss)))"
Questionable use of curly braces in "b呈_abmgate yint 0 v={if(v(a)>{{vthresh}}|v(b)>{{vthresh}},{{vdd}},{{vss}})}"
    Error: undefined symbol in: "if([v](a)>((vthresh))|v(b)>((vthresh)),((vdd)),((vss)))"
Questionable use of curly braces in "b呈_abmgate yint 0 v={if(v(a)>{{vthresh}}|v(b)>{{vthresh}},{{vdd}},{{vss}})}"
    Error: undefined symbol in: "if([v](a)>((vthresh))|v(b)>((vthresh)),((vdd)),((vss)))"
Questionable use of curly braces in "b呈_abmgate yint 0 v={if(v(a)>{{vthresh}}&v(b)>{{vthresh}},{{vdd}},{{vss}})}"
    Error: undefined symbol in: "if([v](a)>((vthresh))&v(b)>((vthresh)),((vdd)),((vss)))"
Questionable use of curly braces in "b呈_abmgate yint 0 v={if(v(a)>{{vthresh}}|v(b)>{{vthresh}}|v(c)>{{vthresh}},{{vdd}},{{vss}})}"
    Error: undefined symbol in: "if([v](a)>((vthresh))|v(b)>((vthresh))|v(c)>((vthresh)),((vdd)),((vss)))"
Questionable use of curly braces in "b呈_abmgate yint 0 v={if(v(s)>{{vthresh}},v(b),v(a))}"
    Error: undefined symbol in: "if([v](s)>((vthresh)),v(b),v(a))"
Questionable use of curly braces in "b呈_abmgate yint 0 v={if(v(a)>{{vthresh}}&v(b)>{{vthresh}}&v(c)>{{vthresh}},{{vdd}},{{vss}})}"
    Error: undefined symbol in: "if([v](a)>((vthresh))&v(b)>((vthresh))&v(c)>((vthresh)),((vdd)),((vss)))"
Questionable use of curly braces in "b呈_abmgate yint 0 v={if(v(a)>{{vthresh}}|v(b)>{{vthresh}},{{vdd}},{{vss}})}"
    Error: undefined symbol in: "if([v](a)>((vthresh))|v(b)>((vthresh)),((vdd)),((vss)))"
Questionable use of curly braces in "b呈_abmgate yint 0 v={if(v(a)>{{vthresh}}&v(b)>{{vthresh}}&v(c)>{{vthresh}}&v(d)>{{vthresh}},{{vdd}},{{vss}})}"
    Error: undefined symbol in: "if([v](a)>((vthresh))&v(b)>((vthresh))&v(c)>((vthresh))&v(d)>((vthresh)),((vdd)),((vss)))"
Questionable use of curly braces in "b呈_abmgate yint 0 v={if(v(a)>{{vthresh}}|v(b)>{{vthresh}}|v(c)>{{vthresh}},{{vdd}},{{vss}})}"
    Error: undefined symbol in: "if([v](a)>((vthresh))|v(b)>((vthresh))|v(c)>((vthresh)),((vdd)),((vss)))"
Questionable use of curly braces in "b呈_abmgate1 yint1 0 v={if(v(a)>{{vthresh}},{{vdd}},{{vss}})}"
    Error: undefined symbol in: "if([v](a)>((vthresh)),((vdd)),((vss)))"
Questionable use of curly braces in "b呈_abmgate2 yint3 0 v={if(v(yint2)>{{vthresh}},{{vdd}},{{vss}})}"
    Error: undefined symbol in: "if([v](yint2)>((vthresh)),((vdd)),((vss)))"
Questionable use of curly braces in "b呈_abmgate yint 0 v={if(v(a)>{{vthresh}}|v(b)>{{vthresh}}|v(c)>{{vthresh}},{{vss}},{{vdd}})}"
    Error: undefined symbol in: "if([v](a)>((vthresh))|v(b)>((vthresh))|v(c)>((vthresh)),((vss)),((vdd)))"
Questionable use of curly braces in "b呈_abmgate yint 0 v={if(v(a)>{{vthresh}}|v(b)>{{vthresh}},{{vss}},{{vdd}})}"
    Error: undefined symbol in: "if([v](a)>((vthresh))|v(b)>((vthresh)),((vss)),((vdd)))"
Questionable use of curly braces in "b呈_abmgate1 yint1 0 v={if(v(a)>{{vthresh}},{{vdd}},{{vss}})}"
    Error: undefined symbol in: "if([v](a)>((vthresh)),((vdd)),((vss)))"
Questionable use of curly braces in "b呈_abmgate2 yint3 0 v={if(v(yint2)>{{vthresh}},{{vdd}},{{vss}})}"
    Error: undefined symbol in: "if([v](yint2)>((vthresh)),((vdd)),((vss)))"
Questionable use of curly braces in "b呈_abmgate yint 0 v={if(v(a)>{{vthresh}},{{vdd}},{{vss}})}"
    Error: undefined symbol in: "if([v](a)>((vthresh)),((vdd)),((vss)))"
Questionable use of curly braces in "b呈_abmgate yint 0 v={if(v(a)>{{vthresh}}|v(b)>{{vthresh}},{{vdd}},{{vss}})}"
    Error: undefined symbol in: "if([v](a)>((vthresh))|v(b)>((vthresh)),((vdd)),((vss)))"
Questionable use of curly braces in "b呈_abmgate yint 0 v={if(v(a)>{{vthresh}},{{vss}},{{vdd}})}"
    Error: undefined symbol in: "if([v](a)>((vthresh)),((vss)),((vdd)))"
Questionable use of curly braces in "b呈_abmgate yint 0 v={if(v(a)>{{vthresh}}&v(b)>{{vthresh}},{{vdd}},{{vss}})}"
    Error: undefined symbol in: "if([v](a)>((vthresh))&v(b)>((vthresh)),((vdd)),((vss)))"
Questionable use of curly braces in "b呈_abmgate1 yint1 0 v={if(v(a)>{{vthresh}},{{vdd}},{{vss}})}"
    Error: undefined symbol in: "if([v](a)>((vthresh)),((vdd)),((vss)))"
Questionable use of curly braces in "b呈_abmgate2 yint3 0 v={if(v(yint2)>{{vthresh}},{{vdd}},{{vss}})}"
    Error: undefined symbol in: "if([v](yint2)>((vthresh)),((vdd)),((vss)))"
Questionable use of curly braces in "b呈_abmgate yint 0 v={if(v(a)>{{vthresh}}&v(b)>{{vthresh}}&v(c)>{{vthresh}},{{vdd}},{{vss}})}"
    Error: undefined symbol in: "if([v](a)>((vthresh))&v(b)>((vthresh))&v(c)>((vthresh)),((vdd)),((vss)))"
Questionable use of curly braces in "b呈_abmgate yint 0 v={if(v(a)>{{vthresh}}|v(b)>{{vthresh}},{{vdd}},{{vss}})}"
    Error: undefined symbol in: "if([v](a)>((vthresh))|v(b)>((vthresh)),((vdd)),((vss)))"
Questionable use of curly braces in "b呈_abmgate yint 0 v={if(v(a)>{{vthresh}}&v(b)>{{vthresh}},{{vdd}},{{vss}})}"
    Error: undefined symbol in: "if([v](a)>((vthresh))&v(b)>((vthresh)),((vdd)),((vss)))"
Questionable use of curly braces in "b呈_abmgate yint 0 v={if(v(a)>{{vthresh}},{{vss}},{{vdd}})}"
    Error: undefined symbol in: "if([v](a)>((vthresh)),((vss)),((vdd)))"
Questionable use of curly braces in "b呈_abmgate yint 0 v={if(v(a)>{{vthresh}}&v(b)>{{vthresh}},{{vdd}},{{vss}})}"
    Error: undefined symbol in: "if([v](a)>((vthresh))&v(b)>((vthresh)),((vdd)),((vss)))"
Questionable use of curly braces in "b呈_abmgate yint 0 v={if(v(a)>{{vthresh}},{{vss}},{{vdd}})}"
    Error: undefined symbol in: "if([v](a)>((vthresh)),((vss)),((vdd)))"
Questionable use of curly braces in "b呈_abmgate yint 0 v={if(v(a)>{{vthresh}},{{vss}},{{vdd}})}"
    Error: undefined symbol in: "if([v](a)>((vthresh)),((vss)),((vdd)))"
Questionable use of curly braces in "b呈_abmgate yint 0 v={if(v(a)>{{vthresh}}&v(b)>{{vthresh}},{{vdd}},{{vss}})}"
    Error: undefined symbol in: "if([v](a)>((vthresh))&v(b)>((vthresh)),((vdd)),((vss)))"
Questionable use of curly braces in "b呈_abmgate yint 0 v={if(v(a)>{{vthresh}}&v(b)>{{vthresh}},{{vdd}},{{vss}})}"
    Error: undefined symbol in: "if([v](a)>((vthresh))&v(b)>((vthresh)),((vdd)),((vss)))"
Questionable use of curly braces in "b呈_abmgate1 yint1 0 v={if(v(a)>{{vthresh}},{{vdd}},{{vss}})}"
    Error: undefined symbol in: "if([v](a)>((vthresh)),((vdd)),((vss)))"
Questionable use of curly braces in "b呈_abmgate2 yint3 0 v={if(v(yint2)>{{vthresh}},{{vdd}},{{vss}})}"
    Error: undefined symbol in: "if([v](yint2)>((vthresh)),((vdd)),((vss)))"
Questionable use of curly braces in "b呈_abmgate1 yint1 0 v={if(v(a)>{{vthresh}},{{vdd}},{{vss}})}"
    Error: undefined symbol in: "if([v](a)>((vthresh)),((vdd)),((vss)))"
Questionable use of curly braces in "b呈_abmgate2 yint3 0 v={if(v(yint2)>{{vthresh}},{{vdd}},{{vss}})}"
    Error: undefined symbol in: "if([v](yint2)>((vthresh)),((vdd)),((vss)))"
Questionable use of curly braces in "b呈_abmgate1 yint1 0 v={if(v(a)>{{vthresh}},{{vdd}},{{vss}})}"
    Error: undefined symbol in: "if([v](a)>((vthresh)),((vdd)),((vss)))"
Questionable use of curly braces in "b呈_abmgate2 yint3 0 v={if(v(yint2)>{{vthresh}},{{vdd}},{{vss}})}"
    Error: undefined symbol in: "if([v](yint2)>((vthresh)),((vdd)),((vss)))"
Questionable use of curly braces in "b呈_abmgate1 yint1 0 v={if(v(a)>{{vthresh}},{{vdd}},{{vss}})}"
    Error: undefined symbol in: "if([v](a)>((vthresh)),((vdd)),((vss)))"
Questionable use of curly braces in "b呈_abmgate2 yint3 0 v={if(v(yint2)>{{vthresh}},{{vdd}},{{vss}})}"
    Error: undefined symbol in: "if([v](yint2)>((vthresh)),((vdd)),((vss)))"
Questionable use of curly braces in "b呈_abmgate yint 0 v={if(v(a)>{{vthresh}},{{vdd}},{{vss}})}"
    Error: undefined symbol in: "if([v](a)>((vthresh)),((vdd)),((vss)))"
Questionable use of curly braces in "b呈_abmgate yint 0 v={if(v(a)>{{vthresh}},{{vdd}},{{vss}})}"
    Error: undefined symbol in: "if([v](a)>((vthresh)),((vdd)),((vss)))"
Questionable use of curly braces in "b呈_abmgate yint 0 v={if(v(a)>{{vthresh}},{{vdd}},{{vss}})}"
    Error: undefined symbol in: "if([v](a)>((vthresh)),((vdd)),((vss)))"
Questionable use of curly braces in "b呈_abmgate yint 0 v={if(v(a)>{{vthresh}},{{vdd}},{{vss}})}"
    Error: undefined symbol in: "if([v](a)>((vthresh)),((vdd)),((vss)))"
Questionable use of curly braces in "b呈_abmgate yint 0 v={if(v(a)>{{vthresh}},{{vdd}},{{vss}})}"
    Error: undefined symbol in: "if([v](a)>((vthresh)),((vdd)),((vss)))"
Warning: Multiple definitions of model "smcj33a" Type: Diode
solver = Normal
Maximum thread count: 16
tnom = 27
temp = 27
method = modified trap
WARNING: Less than two connections to node n036.  This node is used by r6.
WARNING: Less than two connections to node n033.  This node is used by r7.
WARNING: Less than two connections to node n032.  This node is used by r8.
u4:_u3_u105:d_d1: Emission coefficient, N=0.01, too small, limited to 0.1
u4:_u3_u144:d_d1: Emission coefficient, N=0.01, too small, limited to 0.1
u4:_u3_u140:d_d1: Emission coefficient, N=0.01, too small, limited to 0.1
u4:_u3_u114:d_d1: Emission coefficient, N=0.01, too small, limited to 0.1
u4:_u1_u4_u62:d_d1: Emission coefficient, N=0.01, too small, limited to 0.1
u4:_u1_u4_u61:dd: Emission coefficient, N=0.01, too small, limited to 0.1
u4:_u1_u4_u22:dd: Emission coefficient, N=0.01, too small, limited to 0.1
u4:_u1_u2_u205:dd: Emission coefficient, N=0.01, too small, limited to 0.1
u4:_u1_u2_u206:dd: Emission coefficient, N=0.01, too small, limited to 0.1
u4:_u1_u2_u204:dd: Emission coefficient, N=0.01, too small, limited to 0.1
u4:_u1_u2_u220:dd: Emission coefficient, N=0.01, too small, limited to 0.1
Direct Newton iteration failed to find .op point.  (Use ".option noopiter" to skip.)
Starting Gmin stepping
Gmin = 10
vernier = 0.5
vernier = 0.25
Gmin = 2.09715
vernier = 0.125
vernier = 0.0625
vernier = 0.0833333
Gmin = 1.82431
vernier = 0.111111
vernier = 0.148148
Gmin = 1.40296
vernier = 0.074074
vernier = 0.037037
Gmin = 1.24558
vernier = 0.0493827
vernier = 0.0246913
Gmin = 1.17131
vernier = 0.0329218
vernier = 0.0164609
vernier = 0.0219478
Gmin = 1.12805
vernier = 0.0109739
vernier = 0.0146319
Gmin = 1.10258
vernier = 0.00731595
vernier = 0.00975459
Gmin = 1.08592
vernier = 0.0048773
vernier = 0.00650306
Gmin = 1.07408
vernier = 0.00325153
vernier = 0.00433537
Gmin = 1.0651
vernier = 0.00578049
vernier = 0.00289025
Gmin = 1.05705
vernier = 0.00385366
vernier = 0.00192683
Gmin = 1.05147
vernier = 0.00256911
vernier = 0.00342548
vernier = 0.00171274
Gmin = 1.04647
vernier = 0.00228365
Gmin = 1.04111
vernier = 0.00304487
vernier = 0.00152243
vernier = 0.00202991
vernier = 0.00101495
Gmin = 1.0386
vernier = 0.00135327
Gmin = 1.03553
vernier = 0.00180436
vernier = 0.000902182
vernier = 0.00120291
Gmin = 1.0334
vernier = 0.00160388
vernier = 0.000801939
Gmin = 1.03133
vernier = 0.00106925
vernier = 0.00142567
vernier = 0.000712834
Gmin = 1.02928
vernier = 0.000950445
Gmin = 1.02709
vernier = 0.00126726
vernier = 0.00063363
vernier = 0.00084484
Gmin = 1.02562
vernier = 0.00112645
vernier = 0.000563226
Gmin = 1.02425
vernier = 0.000750968
vernier = 0.000563226
Gmin = 1.02286
vernier = 0.000750968
vernier = 0.000563226
vernier = 0.000750968
Gmin = 1.02166
vernier = 0.000563226
vernier = 0.000750968
vernier = 0.000563226
Gmin = 1.02084
vernier = 0.000750968
vernier = 0.000563226
vernier = 0.000422419
Gmin = 1.02002
vernier = 0.000563226
vernier = 0.000422419
Gmin = 1.01916
vernier = 0.000563225
vernier = 0.000422419
vernier = 0.000563225
vernier = 0.000422419
Gmin = 1.01851
vernier = 0.000563225
vernier = 0.000422419
Gmin = 1.01765
vernier = 0.000563225
vernier = 0.000422419
Gmin = 0
Gmin stepping failed

Starting source stepping with srcstepmethod=0
Source Step = 3.0303%
vernier = 0.25
Source Step = 7.57576%
Source Step = 15.1515%
Source Step = 22.7273%
Source Step = 30.303%
Source Step = 37.8788%
vernier = 0.375
Source Step = 48.8636%
Source Step = 60.2273%
Source Step = 71.5909%
Source Step = 82.9545%
Source Step = 94.3182%
vernier = 0.5625
Source stepping succeeded in finding the operating point.

Ignoring empty pin current: Ix(u3:6)
Ignoring empty pin current: Ix(u3:8)
Ignoring empty pin current: Ix(u3:10)
Ignoring empty pin current: Ix(u3:11)
Ignoring empty pin current: Ix(u4:nc_0)
Ignoring empty pin current: Ix(u4:nc_1)
Ignoring empty pin current: Ix(u4:nc_2)
Ignoring empty pin current: Ix(u4:vout_1)
Ignoring empty pin current: Ix(u4:vout_2)
Ignoring empty pin current: Ix(u4:vout_3)
Ignoring empty pin current: Ix(u4:vout_4)
Ignoring empty pin current: Ix(u4:vout_5)
Ignoring empty pin current: Ix(u3:6)
Ignoring empty pin current: Ix(u3:8)
Ignoring empty pin current: Ix(u3:10)
Ignoring empty pin current: Ix(u3:11)
Ignoring empty pin current: Ix(u4:nc_0)
Ignoring empty pin current: Ix(u4:nc_1)
Ignoring empty pin current: Ix(u4:nc_2)
Ignoring empty pin current: Ix(u4:vout_1)
Ignoring empty pin current: Ix(u4:vout_2)
Ignoring empty pin current: Ix(u4:vout_3)
Ignoring empty pin current: Ix(u4:vout_4)
Ignoring empty pin current: Ix(u4:vout_5)
Heightened Def Con from 1.02089e-13 to 1.40727e-10
Heightened Def Con from 1.60456e-10 to 7.16046e-09
Heightened Def Con from 7.17858e-09 to 1.11786e-08
Heightened Def Con from 1.11977e-08 to 1.61977e-08
Heightened Def Con from 1.7367e-08 to 2.0367e-08
Heightened Def Con from 2.2194e-08 to 2.4194e-08
Heightened Def Con from 4.86793e-08 to 5.16793e-08
Heightened Def Con from 0.000327558 to 0.000327558
Total elapsed time: 12.838 seconds.

