LTspice 24.0.12 for Windows
Circuit: * C:\Users\Luca Lanzillotta\Documents\GitHub\scales-hardware\imx8x_eps_leviathan\simulation_models\ltSpice\full_eps_sim\full_eps_sim.asc
Start Time: Sat Mar 14 03:21:27 2026
Questionable use of curly braces in "b§e_abmgate yint 0 v={if(v(a)>{{vthresh}},{{vdd}},{{vss}})}"
    Error: undefined symbol in: "if([v](a)>((vthresh)),((vdd)),((vss)))"
Questionable use of curly braces in "b§e_abmgate yint 0 v={if(v(a)>{{vthresh}},{{vss}},{{vdd}})}"
    Error: undefined symbol in: "if([v](a)>((vthresh)),((vss)),((vdd)))"
Questionable use of curly braces in "b§e_abmgate yint 0 v={if(v(a)>{{vthresh}}&v(b)>{{vthresh}},{{vdd}},{{vss}})}"
    Error: undefined symbol in: "if([v](a)>((vthresh))&v(b)>((vthresh)),((vdd)),((vss)))"
Questionable use of curly braces in "b§e_abmgate yint 0 v={if(v(a)>{{vthresh}},{{vss}},{{vdd}})}"
    Error: undefined symbol in: "if([v](a)>((vthresh)),((vss)),((vdd)))"
Questionable use of curly braces in "b§e_abmgate yint 0 v={if(v(a)>{{vthresh}},{{vdd}},{{vss}})}"
    Error: undefined symbol in: "if([v](a)>((vthresh)),((vdd)),((vss)))"
Questionable use of curly braces in "b§e_abmgate yint 0 v={if(v(a)>{{vthresh}},{{vdd}},{{vss}})}"
    Error: undefined symbol in: "if([v](a)>((vthresh)),((vdd)),((vss)))"
Questionable use of curly braces in "b§e_abmgate yint 0 v={if(v(a)>{{vthresh}}|v(b)>{{vthresh}},{{vdd}},{{vss}})}"
    Error: undefined symbol in: "if([v](a)>((vthresh))|v(b)>((vthresh)),((vdd)),((vss)))"
Questionable use of curly braces in "b§e_abmgate yint 0 v={if(v(a)>{{vthresh}}|v(b)>{{vthresh}},{{vdd}},{{vss}})}"
    Error: undefined symbol in: "if([v](a)>((vthresh))|v(b)>((vthresh)),((vdd)),((vss)))"
Questionable use of curly braces in "b§e_abmgate yint 0 v={if(v(a)>{{vthresh}}&v(b)>{{vthresh}},{{vdd}},{{vss}})}"
    Error: undefined symbol in: "if([v](a)>((vthresh))&v(b)>((vthresh)),((vdd)),((vss)))"
Questionable use of curly braces in "b§e_abmgate yint 0 v={if(v(a)>{{vthresh}}|v(b)>{{vthresh}}|v(c)>{{vthresh}},{{vdd}},{{vss}})}"
    Error: undefined symbol in: "if([v](a)>((vthresh))|v(b)>((vthresh))|v(c)>((vthresh)),((vdd)),((vss)))"
Questionable use of curly braces in "b§e_abmgate yint 0 v={if(v(s)>{{vthresh}},v(b),v(a))}"
    Error: undefined symbol in: "if([v](s)>((vthresh)),v(b),v(a))"
Questionable use of curly braces in "b§e_abmgate yint 0 v={if(v(a)>{{vthresh}}&v(b)>{{vthresh}}&v(c)>{{vthresh}},{{vdd}},{{vss}})}"
    Error: undefined symbol in: "if([v](a)>((vthresh))&v(b)>((vthresh))&v(c)>((vthresh)),((vdd)),((vss)))"
Questionable use of curly braces in "b§e_abmgate yint 0 v={if(v(a)>{{vthresh}}|v(b)>{{vthresh}},{{vdd}},{{vss}})}"
    Error: undefined symbol in: "if([v](a)>((vthresh))|v(b)>((vthresh)),((vdd)),((vss)))"
Questionable use of curly braces in "b§e_abmgate yint 0 v={if(v(a)>{{vthresh}}&v(b)>{{vthresh}}&v(c)>{{vthresh}}&v(d)>{{vthresh}},{{vdd}},{{vss}})}"
    Error: undefined symbol in: "if([v](a)>((vthresh))&v(b)>((vthresh))&v(c)>((vthresh))&v(d)>((vthresh)),((vdd)),((vss)))"
Questionable use of curly braces in "b§e_abmgate yint 0 v={if(v(a)>{{vthresh}}|v(b)>{{vthresh}}|v(c)>{{vthresh}},{{vdd}},{{vss}})}"
    Error: undefined symbol in: "if([v](a)>((vthresh))|v(b)>((vthresh))|v(c)>((vthresh)),((vdd)),((vss)))"
Questionable use of curly braces in "b§e_abmgate1 yint1 0 v={if(v(a)>{{vthresh}},{{vdd}},{{vss}})}"
    Error: undefined symbol in: "if([v](a)>((vthresh)),((vdd)),((vss)))"
Questionable use of curly braces in "b§e_abmgate2 yint3 0 v={if(v(yint2)>{{vthresh}},{{vdd}},{{vss}})}"
    Error: undefined symbol in: "if([v](yint2)>((vthresh)),((vdd)),((vss)))"
Questionable use of curly braces in "b§e_abmgate yint 0 v={if(v(a)>{{vthresh}}|v(b)>{{vthresh}}|v(c)>{{vthresh}},{{vss}},{{vdd}})}"
    Error: undefined symbol in: "if([v](a)>((vthresh))|v(b)>((vthresh))|v(c)>((vthresh)),((vss)),((vdd)))"
Questionable use of curly braces in "b§e_abmgate yint 0 v={if(v(a)>{{vthresh}}|v(b)>{{vthresh}},{{vss}},{{vdd}})}"
    Error: undefined symbol in: "if([v](a)>((vthresh))|v(b)>((vthresh)),((vss)),((vdd)))"
Questionable use of curly braces in "b§e_abmgate1 yint1 0 v={if(v(a)>{{vthresh}},{{vdd}},{{vss}})}"
    Error: undefined symbol in: "if([v](a)>((vthresh)),((vdd)),((vss)))"
Questionable use of curly braces in "b§e_abmgate2 yint3 0 v={if(v(yint2)>{{vthresh}},{{vdd}},{{vss}})}"
    Error: undefined symbol in: "if([v](yint2)>((vthresh)),((vdd)),((vss)))"
Questionable use of curly braces in "b§e_abmgate yint 0 v={if(v(a)>{{vthresh}},{{vdd}},{{vss}})}"
    Error: undefined symbol in: "if([v](a)>((vthresh)),((vdd)),((vss)))"
Questionable use of curly braces in "b§e_abmgate yint 0 v={if(v(a)>{{vthresh}}|v(b)>{{vthresh}},{{vdd}},{{vss}})}"
    Error: undefined symbol in: "if([v](a)>((vthresh))|v(b)>((vthresh)),((vdd)),((vss)))"
Questionable use of curly braces in "b§e_abmgate yint 0 v={if(v(a)>{{vthresh}},{{vss}},{{vdd}})}"
    Error: undefined symbol in: "if([v](a)>((vthresh)),((vss)),((vdd)))"
Questionable use of curly braces in "b§e_abmgate yint 0 v={if(v(a)>{{vthresh}}&v(b)>{{vthresh}},{{vdd}},{{vss}})}"
    Error: undefined symbol in: "if([v](a)>((vthresh))&v(b)>((vthresh)),((vdd)),((vss)))"
Questionable use of curly braces in "b§e_abmgate1 yint1 0 v={if(v(a)>{{vthresh}},{{vdd}},{{vss}})}"
    Error: undefined symbol in: "if([v](a)>((vthresh)),((vdd)),((vss)))"
Questionable use of curly braces in "b§e_abmgate2 yint3 0 v={if(v(yint2)>{{vthresh}},{{vdd}},{{vss}})}"
    Error: undefined symbol in: "if([v](yint2)>((vthresh)),((vdd)),((vss)))"
Questionable use of curly braces in "b§e_abmgate yint 0 v={if(v(a)>{{vthresh}}&v(b)>{{vthresh}}&v(c)>{{vthresh}},{{vdd}},{{vss}})}"
    Error: undefined symbol in: "if([v](a)>((vthresh))&v(b)>((vthresh))&v(c)>((vthresh)),((vdd)),((vss)))"
Questionable use of curly braces in "b§e_abmgate yint 0 v={if(v(a)>{{vthresh}}|v(b)>{{vthresh}},{{vdd}},{{vss}})}"
    Error: undefined symbol in: "if([v](a)>((vthresh))|v(b)>((vthresh)),((vdd)),((vss)))"
Questionable use of curly braces in "b§e_abmgate yint 0 v={if(v(a)>{{vthresh}}&v(b)>{{vthresh}},{{vdd}},{{vss}})}"
    Error: undefined symbol in: "if([v](a)>((vthresh))&v(b)>((vthresh)),((vdd)),((vss)))"
Questionable use of curly braces in "b§e_abmgate yint 0 v={if(v(a)>{{vthresh}},{{vss}},{{vdd}})}"
    Error: undefined symbol in: "if([v](a)>((vthresh)),((vss)),((vdd)))"
Questionable use of curly braces in "b§e_abmgate yint 0 v={if(v(a)>{{vthresh}}&v(b)>{{vthresh}},{{vdd}},{{vss}})}"
    Error: undefined symbol in: "if([v](a)>((vthresh))&v(b)>((vthresh)),((vdd)),((vss)))"
Questionable use of curly braces in "b§e_abmgate yint 0 v={if(v(a)>{{vthresh}},{{vss}},{{vdd}})}"
    Error: undefined symbol in: "if([v](a)>((vthresh)),((vss)),((vdd)))"
Questionable use of curly braces in "b§e_abmgate yint 0 v={if(v(a)>{{vthresh}},{{vss}},{{vdd}})}"
    Error: undefined symbol in: "if([v](a)>((vthresh)),((vss)),((vdd)))"
Questionable use of curly braces in "b§e_abmgate yint 0 v={if(v(a)>{{vthresh}}&v(b)>{{vthresh}},{{vdd}},{{vss}})}"
    Error: undefined symbol in: "if([v](a)>((vthresh))&v(b)>((vthresh)),((vdd)),((vss)))"
Questionable use of curly braces in "b§e_abmgate yint 0 v={if(v(a)>{{vthresh}}&v(b)>{{vthresh}},{{vdd}},{{vss}})}"
    Error: undefined symbol in: "if([v](a)>((vthresh))&v(b)>((vthresh)),((vdd)),((vss)))"
Questionable use of curly braces in "b§e_abmgate1 yint1 0 v={if(v(a)>{{vthresh}},{{vdd}},{{vss}})}"
    Error: undefined symbol in: "if([v](a)>((vthresh)),((vdd)),((vss)))"
Questionable use of curly braces in "b§e_abmgate2 yint3 0 v={if(v(yint2)>{{vthresh}},{{vdd}},{{vss}})}"
    Error: undefined symbol in: "if([v](yint2)>((vthresh)),((vdd)),((vss)))"
Questionable use of curly braces in "b§e_abmgate1 yint1 0 v={if(v(a)>{{vthresh}},{{vdd}},{{vss}})}"
    Error: undefined symbol in: "if([v](a)>((vthresh)),((vdd)),((vss)))"
Questionable use of curly braces in "b§e_abmgate2 yint3 0 v={if(v(yint2)>{{vthresh}},{{vdd}},{{vss}})}"
    Error: undefined symbol in: "if([v](yint2)>((vthresh)),((vdd)),((vss)))"
Questionable use of curly braces in "b§e_abmgate1 yint1 0 v={if(v(a)>{{vthresh}},{{vdd}},{{vss}})}"
    Error: undefined symbol in: "if([v](a)>((vthresh)),((vdd)),((vss)))"
Questionable use of curly braces in "b§e_abmgate2 yint3 0 v={if(v(yint2)>{{vthresh}},{{vdd}},{{vss}})}"
    Error: undefined symbol in: "if([v](yint2)>((vthresh)),((vdd)),((vss)))"
Questionable use of curly braces in "b§e_abmgate1 yint1 0 v={if(v(a)>{{vthresh}},{{vdd}},{{vss}})}"
    Error: undefined symbol in: "if([v](a)>((vthresh)),((vdd)),((vss)))"
Questionable use of curly braces in "b§e_abmgate2 yint3 0 v={if(v(yint2)>{{vthresh}},{{vdd}},{{vss}})}"
    Error: undefined symbol in: "if([v](yint2)>((vthresh)),((vdd)),((vss)))"
Questionable use of curly braces in "b§e_abmgate yint 0 v={if(v(a)>{{vthresh}},{{vdd}},{{vss}})}"
    Error: undefined symbol in: "if([v](a)>((vthresh)),((vdd)),((vss)))"
Questionable use of curly braces in "b§e_abmgate yint 0 v={if(v(a)>{{vthresh}},{{vdd}},{{vss}})}"
    Error: undefined symbol in: "if([v](a)>((vthresh)),((vdd)),((vss)))"
Questionable use of curly braces in "b§e_abmgate yint 0 v={if(v(a)>{{vthresh}},{{vdd}},{{vss}})}"
    Error: undefined symbol in: "if([v](a)>((vthresh)),((vdd)),((vss)))"
Questionable use of curly braces in "b§e_abmgate yint 0 v={if(v(a)>{{vthresh}},{{vdd}},{{vss}})}"
    Error: undefined symbol in: "if([v](a)>((vthresh)),((vdd)),((vss)))"
Questionable use of curly braces in "b§e_abmgate yint 0 v={if(v(a)>{{vthresh}},{{vdd}},{{vss}})}"
    Error: undefined symbol in: "if([v](a)>((vthresh)),((vdd)),((vss)))"
Warning: Multiple definitions of model "smcj33a" Type: Diode
solver = Normal
Maximum thread count: 16
tnom = 27
temp = 27
method = modified trap
WARNING: Less than two connections to node n031.  This node is used by r6.
WARNING: Less than two connections to node n028.  This node is used by r7.
WARNING: Less than two connections to node n027.  This node is used by r8.
u4:_u3_u105:d_d1: Emission coefficient, N=0.01, too small, limited to 0.1
u4:_u3_u144:d_d1: Emission coefficient, N=0.01, too small, limited to 0.1
u4:_u3_u140:d_d1: Emission coefficient, N=0.01, too small, limited to 0.1
u4:_u3_u114:d_d1: Emission coefficient, N=0.01, too small, limited to 0.1
u4:_u1_u4_u62:d_d1: Emission coefficient, N=0.01, too small, limited to 0.1
u4:_u1_u4_u61:dd: Emission coefficient, N=0.01, too small, limited to 0.1
u4:_u1_u4_u22:dd: Emission coefficient, N=0.01, too small, limited to 0.1
u4:_u1_u2_u205:dd: Emission coefficient, N=0.01, too small, limited to 0.1
u4:_u1_u2_u206:dd: Emission coefficient, N=0.01, too small, limited to 0.1
u4:_u1_u2_u204:dd: Emission coefficient, N=0.01, too small, limited to 0.1
u4:_u1_u2_u220:dd: Emission coefficient, N=0.01, too small, limited to 0.1
Direct Newton iteration failed to find .op point.  (Use ".option noopiter" to skip.)
Starting Gmin stepping
Gmin = 10
vernier = 0.5
vernier = 0.25
Gmin = 2.09715
vernier = 0.333333
vernier = 0.166667
Gmin = 1.37025
vernier = 0.0833333
vernier = 0.0416667
Gmin = 1.23589
vernier = 0.0555555
vernier = 0.0277778
Gmin = 1.15731
vernier = 0.037037
vernier = 0.0185185
vernier = 0.0246913
vernier = 0.0123457
Gmin = 1.12741
vernier = 0.0164609
vernier = 0.00823044
Gmin = 1.10448
vernier = 0.0109739
vernier = 0.00548696
Gmin = 1.08572
vernier = 0.00731595
vernier = 0.00365797
Gmin = 1.0729
vernier = 0.0048773
vernier = 0.00650306
Gmin = 1.06045
vernier = 0.00325153
vernier = 0.00433537
vernier = 0.00216769
Gmin = 1.05615
vernier = 0.00289025
Gmin = 1.0493
vernier = 0.00385366
vernier = 0.00192683
vernier = 0.00256911
Gmin = 1.04476
vernier = 0.00128455
vernier = 0.00171274
Gmin = 1.0413
vernier = 0.00228365
vernier = 0.00114182
Gmin = 1.03819
vernier = 0.00152243
vernier = 0.00202991
vernier = 0.00101495
Gmin = 1.03523
vernier = 0.00135327
Gmin = 1.03217
vernier = 0.00180436
vernier = 0.000902182
vernier = 0.00120291
Gmin = 1.03004
vernier = 0.000601454
vernier = 0.000801939
Gmin = 1.02844
vernier = 0.00106925
vernier = 0.000534626
Gmin = 1.027
vernier = 0.000712834
vernier = 0.000950445
vernier = 0.000475223
Gmin = 1.02562
vernier = 0.00063363
Gmin = 1.0242
vernier = 0.00084484
vernier = 0.00042242
vernier = 0.000563226
Gmin = 1.02321
vernier = 0.000750968
vernier = 0.000563226
Gmin = 1.02206
vernier = 0.000750968
vernier = 0.000563226
vernier = 0.000750968
vernier = 0.000563226
Gmin = 1.0212
vernier = 0.000750968
vernier = 0.000563226
Gmin = 1.02005
vernier = 0.000422419
vernier = 0.000563226
vernier = 0.000422419
Gmin = 1.0194
vernier = 0.000563226
vernier = 0.000422419
Gmin = 1.01854
vernier = 0.000563225
vernier = 0.000422419
vernier = 0.000563225
vernier = 0.000422419
Gmin = 1.0179
vernier = 0.000563225
vernier = 0.000422419
Gmin = 0
Gmin = 0
Gmin stepping failed

Starting source stepping with srcstepmethod=0
Source Step = 3.0303%
Source Step = 33.3333%
Source Step = 63.6364%
Source Step = 93.9394%
Source stepping succeeded in finding the operating point.

Ignoring empty pin current: Ix(u3:6)
Ignoring empty pin current: Ix(u3:8)
Ignoring empty pin current: Ix(u3:10)
Ignoring empty pin current: Ix(u3:11)
Ignoring empty pin current: Ix(u4:nc_0)
Ignoring empty pin current: Ix(u4:nc_1)
Ignoring empty pin current: Ix(u4:nc_2)
Ignoring empty pin current: Ix(u4:vout_1)
Ignoring empty pin current: Ix(u4:vout_2)
Ignoring empty pin current: Ix(u4:vout_3)
Ignoring empty pin current: Ix(u4:vout_4)
Ignoring empty pin current: Ix(u4:vout_5)
Ignoring empty pin current: Ix(u3:6)
Ignoring empty pin current: Ix(u3:8)
Ignoring empty pin current: Ix(u3:10)
Ignoring empty pin current: Ix(u3:11)
Ignoring empty pin current: Ix(u4:nc_0)
Ignoring empty pin current: Ix(u4:nc_1)
Ignoring empty pin current: Ix(u4:nc_2)
Ignoring empty pin current: Ix(u4:vout_1)
Ignoring empty pin current: Ix(u4:vout_2)
Ignoring empty pin current: Ix(u4:vout_3)
Ignoring empty pin current: Ix(u4:vout_4)
Ignoring empty pin current: Ix(u4:vout_5)
Changing Tseed to 5e-09
Changing Tseed to 5e-11
Heightened Def Con from 5.08363e-11 to 6.05084e-09
Heightened Def Con from 7.29539e-09 to 1.02954e-08
Heightened Def Con from 4.23062e-08 to 4.43062e-08
Heightened Def Con from 7.06466e-08 to 7.26466e-08
Heightened Def Con from 0.000828991 to 0.000828991
Heightened Def Con from 0.000840616 to 0.000840618
Heightened Def Con from 0.000844366 to 0.000844367
Heightened Def Con from 0.000844367 to 0.000844381
Heightened Def Con from 0.000851822 to 0.000851825
Heightened Def Con from 0.000855533 to 0.000855536
Heightened Def Con from 0.000855537 to 0.00085554
Heightened Def Con from 0.000877563 to 0.000877566
Heightened Def Con from 0.00108147 to 0.00108147
Heightened Def Con from 0.00112975 to 0.00112976
Heightened Def Con from 0.00115273 to 0.00115273
Heightened Def Con from 0.00116808 to 0.00116808
Heightened Def Con from 0.00117063 to 0.00117063
Heightened Def Con from 0.00117576 to 0.00117577
Heightened Def Con from 0.00117827 to 0.00117828
Heightened Def Con from 0.00118339 to 0.00118339
Heightened Def Con from 0.00118595 to 0.00118596
Heightened Def Con from 0.0011886 to 0.00118861
Heightened Def Con from 0.00118861 to 0.00118861
Heightened Def Con from 0.00121352 to 0.00121352
Heightened Def Con from 0.00179077 to 0.00179078
Heightened Def Con from 0.0025158 to 0.0025158
Total elapsed time: 94.718 seconds.

