LTspice 24.1.5 for Windows
Circuit: C:\Users\luqui\OneDrive\Documents\GitHub\scales-hardware\imx8x_eps_leviathan\simulation_models\ltSpice\full_eps_sim\full_eps_sim.net
Start Time: Tue Mar 17 10:24:02 2026
solver = Normal
Maximum thread count: 16
tnom = 27
temp = 27
method = trap
C:\Users\luqui\OneDrive\Documents\GitHub\scales-hardware\imx8x_eps_leviathan\simulation_models\ltSpice\full_eps_sim\full_eps_sim.net(132): Limiting rise time to 5e-05.

V3 WD_IN 0 PULSE(0 3.3 0 0 0 0 .5ms)
^^^^^^^^^^^^^^^^^^^^^^^^^^^^^^^^^^^^
C:\Users\luqui\OneDrive\Documents\GitHub\scales-hardware\imx8x_eps_leviathan\simulation_models\ltSpice\full_eps_sim\full_eps_sim.net(132): Limiting fall time to 5e-05.

V3 WD_IN 0 PULSE(0 3.3 0 0 0 0 .5ms)
^^^^^^^^^^^^^^^^^^^^^^^^^^^^^^^^^^^^
d_d1: Emission coefficient, N=0.01, too small, limited to 0.1
dd: Emission coefficient, N=0.01, too small, limited to 0.1
dd: Emission coefficient, N=0.01, too small, limited to 0.1
dd: Emission coefficient, N=0.01, too small, limited to 0.1
dd: Emission coefficient, N=0.01, too small, limited to 0.1
dd: Emission coefficient, N=0.01, too small, limited to 0.1
dd: Emission coefficient, N=0.01, too small, limited to 0.1
d_d1: Emission coefficient, N=0.01, too small, limited to 0.1
d_d1: Emission coefficient, N=0.01, too small, limited to 0.1
d_d1: Emission coefficient, N=0.01, too small, limited to 0.1
d_d1: Emission coefficient, N=0.01, too small, limited to 0.1
d_d1: Emission coefficient, N=0.01, too small, limited to 0.1
d_d1: Emission coefficient, N=0.01, too small, limited to 0.1
d_d1: Emission coefficient, N=0.01, too small, limited to 0.1
d_d1: Emission coefficient, N=0.01, too small, limited to 0.1
d_d1: Emission coefficient, N=0.01, too small, limited to 0.1
dd: Emission coefficient, N=0.01, too small, limited to 0.1
dd: Emission coefficient, N=0.01, too small, limited to 0.1
dd: Emission coefficient, N=0.01, too small, limited to 0.1
dd: Emission coefficient, N=0.01, too small, limited to 0.1
dd: Emission coefficient, N=0.01, too small, limited to 0.1
dd: Emission coefficient, N=0.01, too small, limited to 0.1
d_d1: Emission coefficient, N=0.01, too small, limited to 0.1
d_d1: Emission coefficient, N=0.01, too small, limited to 0.1
d_d1: Emission coefficient, N=0.01, too small, limited to 0.1
d_d1: Emission coefficient, N=0.01, too small, limited to 0.1
d_d1: Emission coefficient, N=0.01, too small, limited to 0.1
dd: Emission coefficient, N=0.01, too small, limited to 0.1
dd: Emission coefficient, N=0.01, too small, limited to 0.1
dd: Emission coefficient, N=0.01, too small, limited to 0.1
dd: Emission coefficient, N=0.01, too small, limited to 0.1
dd: Emission coefficient, N=0.01, too small, limited to 0.1
dd: Emission coefficient, N=0.01, too small, limited to 0.1
Direct Newton iteration failed to find .op point.  (Use ".option noopiter" to skip.)
Starting Gmin stepping
Gmin = 10
vernier = 0.5
Gmin = 2.84124
vernier = 0.666667
vernier = 0.333333
vernier = 0.166667
Gmin = 2.05621
vernier = 0.222222
vernier = 0.111111
vernier = 0.148148
vernier = 0.074074
Gmin = 1.72125
vernier = 0.0987653
vernier = 0.0493827
Gmin = 1.5136
vernier = 0.0658435
vernier = 0.0329218
vernier = 0.0438957
Gmin = 1.40222
vernier = 0.0219478
vernier = 0.0292638
Gmin = 1.33971
vernier = 0.0146319
vernier = 0.0195092
Gmin = 1.29327
vernier = 0.0260122
vernier = 0.0130061
Gmin = 1.25198
vernier = 0.0173415
vernier = 0.00867074
vernier = 0.011561
Gmin = 1.22562
vernier = 0.0154146
vernier = 0.00770732
Gmin = 1.2011
vernier = 0.0102764
vernier = 0.00513821
Gmin = 1.18123
vernier = 0.00685095
vernier = 0.0091346
Gmin = 1.16202
vernier = 0.0045673
vernier = 0.00608973
Gmin = 1.15102
vernier = 0.00811964
vernier = 0.00405982
vernier = 0.00541309
Gmin = 1.14017
vernier = 0.00270655
Gmin = 0
Trouble finding operating point....skipping operating point for Transient analysis.

Simulation stopped by user.
Total elapsed time: 29.922 seconds.

Files loaded:
C:\Users\luqui\OneDrive\Documents\GitHub\scales-hardware\imx8x_eps_leviathan\simulation_models\ltSpice\full_eps_sim\full_eps_sim.net
C:\Users\luqui\AppData\Local\LTspice\lib\cmp\standard.dio
C:\Users\luqui\OneDrive\Documents\GitHub\scales-hardware\imx8x_eps_leviathan\simulation_models\ltSpice\full_eps_sim\TPS1HB08B-Q1_TRANS.lib
C:\Users\luqui\AppData\Local\LTspice\lib\sub\LT8612.sub
C:\Users\luqui\AppData\Local\LTspice\lib\sub\LTC1.lib
C:\Users\luqui\AppData\Local\LTspice\lib\sub\LTC6902.sub

