
**** 03/12/26 16:16:41 *** PSpice 23.1.0 (17 December 2024) *** ID# 0 ********

 ** Profile: "STARTUP-published"  [ C:\Users\luqui\OneDrive\Documents\GitHub\scales-hardware\imx8x_eps_leviathan\Simulation Models\TP


 ****     CIRCUIT DESCRIPTION


******************************************************************************




** Creating circuit file "published.cir" 
** WARNING: THIS AUTOMATICALLY GENERATED FILE MAY BE OVERWRITTEN BY SUBSEQUENT SIMULATIONS

*Libraries: 
* Profile Libraries :
* Local Libraries :
.LIB "../../../tps1hb08b-q1_trans.lib" 
* From [PSPICE NETLIST] section of C:\Users\luqui\cdssetup\OrCAD_PSpice\23.1.0\PSpice.ini file:
.lib "nom.lib" 

*Analysis directives: 
.TRAN  0 700u 0 100n 
.OPTIONS ADVCONV
.OPTIONS ABSTOL= 1.0n
.OPTIONS CHGTOL= 1p
.OPTIONS ITL4= 40
.PROBE64 V(alias(*)) I(alias(*)) 
.INC "..\STARTUP.net" 



**** INCLUDING STARTUP.net ****
* source TPS1HB08B-Q1_TRANS
C_C7         VBB 0  0.1u  
D_D4          0 VBB SMCJ33A 
C_C4         VBB 0  2.2u  
V_VIN         VBB 0  
+PULSE 0 13.5 0.01m 100n 100n 1 2
X_C11    0 VBB STARTUP_C11 
V_V6         N16780779 0  
+PULSE 0 5 0.25m 100n 100n 1 5
R_R13         N16780779 DIA_EN  10k TC=0,0 
R_R14         0 SEL1  10k TC=0,0 
R_R16         VBB ILIM  10k TC=0,0 
R_R12         N16780779 EN  10k TC=0,0 
R_R11         0 LATCH  10k TC=0,0 
C_C8         N16781522 0  100p  
R_R7         SNS_IC N16781522  10K TC=0,0 
D_D5          0 VOUT SMCJ33A 
C_C5         VOUT 0  0.022u  
R_RLOAD         VOUT 0  2.6 TC=0,0 
X_U1         DIA_EN EN 0 ILIM LATCH N16782192 N16782188 N16782190 SEL1 SNS_IC
+  TCON TJ VBB VOUT VOUT VOUT VOUT VOUT VOUT TPS1HB08B-Q1_TRANS PARAMS:
+  TEMP_AMB=25
R_R1         0 SNS_IC  1K TC=0,0 

.subckt STARTUP_C11 1 2  
C_C11         1 _SR C_C11 47u  
.model         C_C11 CAP C=1      
RESR_C11         _SR 2 0.68   
.ends STARTUP_C11

**** RESUMING published.cir ****
.END

**** 03/12/26 16:16:41 *** PSpice 23.1.0 (17 December 2024) *** ID# 0 ********

 ** Profile: "STARTUP-published"  [ C:\Users\luqui\OneDrive\Documents\GitHub\scales-hardware\imx8x_eps_leviathan\Simulation Models\TP


 ****     Diode MODEL PARAMETERS


******************************************************************************




               SMCJ33A         X_U1.X_U3_U105.D_D1 
          IS  100.000000E-09    1.000000E-15 
           N    1.05             .01         
         ISR    8.000000E-09                 
         IKF    1.000000E-03                 
          BV   34.3                          
         IBV   10.000000E-06                 
         NBV   20                            
          RS     .2              .05         
          TT    4.000000E-09   10.000000E-12 
         CJO   80.000000E-09                 
          VJ     .4                          
           M    1.3                          
          EG     .84                         
        TRS1  100.000000E-06                 


               X_U1.X_U3_U144.D_D1 
          IS    1.000000E-15 
           N     .01         
          RS     .05         
          TT   10.000000E-12 


               X_U1.X_U3_U54.d_d1 
          IS    1.000000E-15 
           N     .1          
          RS    5.000000E-03 
          TT   10.000000E-12 


               X_U1.X_U3_U58.dd1 
          IS    1.000000E-15 
           N     .1          
          RS     .05         
          TT   10.000000E-12 


               X_U1.X_U3_U140.D_D1 
          IS    1.000000E-15 
           N     .01         
          RS     .05         
          TT   10.000000E-12 


               X_U1.X_U3_U53.d_d1 
          IS    1.000000E-15 
           N     .1          
          RS    5.000000E-03 
          TT   10.000000E-12 


               X_U1.X_U3_U61.d_d1 
          IS    1.000000E-15 
           N     .1          
          RS    5.000000E-03 
          TT   10.000000E-12 


               X_U1.X_U3_U114.D_D1 
          IS    1.000000E-15 
           N     .01         
          RS     .05         
          TT   10.000000E-12 


               X_U1.X_U1_U1_U42.d_d1 
          IS    1.000000E-15 
           N     .1          
          RS    5.000000E-03 
          TT   10.000000E-12 


               X_U1.X_U1_U1_U41.d_d1 
          IS    1.000000E-15 
           N     .1          
          RS    5.000000E-03 
          TT   10.000000E-12 


               X_U1.X_U1_U1_U40.d_d1 
          IS    1.000000E-15 
           N     .1          
          RS    5.000000E-03 
          TT   10.000000E-12 


               X_U1.X_U1_U4_U62.D_D1 
          IS    1.000000E-15 
           N     .01         
          RS     .05         
          TT   10.000000E-12 


               X_U1.X_U1_U4_U61.dd 
          IS    1.000000E-15 
           N     .01         
          TT   10.000000E-12 


               X_U1.X_U1_U4_U22.dd 
          IS    1.000000E-15 
           N     .01         
          TT   10.000000E-12 


               X_U1.X_U1_U2_U224.d_d1 
          IS    1.000000E-15 
           N     .1          
          RS    5.000000E-03 
          TT   10.000000E-12 


               X_U1.X_U1_U2_U205.dd 
          IS    1.000000E-15 
           N     .01         
          TT   10.000000E-12 


               X_U1.X_U1_U2_U206.dd 
          IS    1.000000E-15 
           N     .01         
          TT   10.000000E-12 


               X_U1.X_U1_U2_U204.dd 
          IS    1.000000E-15 
           N     .01         
          TT   10.000000E-12 


               X_U1.X_U1_U2_U193.dd1 
          IS    1.000000E-15 
           N     .1          
          RS     .05         
          TT   10.000000E-12 


               X_U1.X_U1_U2_U220.dd 
          IS    1.000000E-15 
           N     .01         
          TT   10.000000E-12 


               X_U1.X_U2_U16.d_d1 
          IS    1.000000E-15 
           N     .1          
          RS    5.000000E-03 
          TT   10.000000E-12 


**** 03/12/26 16:16:41 *** PSpice 23.1.0 (17 December 2024) *** ID# 0 ********

 ** Profile: "STARTUP-published"  [ C:\Users\luqui\OneDrive\Documents\GitHub\scales-hardware\imx8x_eps_leviathan\Simulation Models\TP


 ****     MOSFET MODEL PARAMETERS


******************************************************************************




               NMOS01_TPS2HA08 
               NMOS            
       LEVEL    1            
           L  100.000000E-06 
           W  100.000000E-06 
         VTO    2.02         
          KP  156.250000E+03 
       GAMMA    0            
         PHI     .6          
      LAMBDA    1.000000E-03 
          IS   10.000000E-15 
          JS    0            
          PB     .8          
        PBSW     .8          
          CJ    0            
        CJSW    0            
        CGSO    0            
        CGDO    0            
        CGBO    0            
         TOX    0            
          XJ    0            
       UCRIT   10.000000E+03 
      DIOMOD    1            
         VFB    0            
        LETA    0            
        WETA    0            
          U0    0            
        TEMP    0            
         VDD    5            
       XPART    0            


**** 03/12/26 16:16:41 *** PSpice 23.1.0 (17 December 2024) *** ID# 0 ********

 ** Profile: "STARTUP-published"  [ C:\Users\luqui\OneDrive\Documents\GitHub\scales-hardware\imx8x_eps_leviathan\Simulation Models\TP


 ****     Capacitor MODEL PARAMETERS


******************************************************************************




               X_C11.C_C11     
           C    1            


**** 03/12/26 16:16:41 *** PSpice 23.1.0 (17 December 2024) *** ID# 0 ********

 ** Profile: "STARTUP-published"  [ C:\Users\luqui\OneDrive\Documents\GitHub\scales-hardware\imx8x_eps_leviathan\Simulation Models\TP


 ****     Voltage Controlled Switch MODEL PARAMETERS


******************************************************************************




               X_U1.X_U3_S4._U3_S4 
         RON    1.000000E-03 
        ROFF    1.000000E+09 
         VON     .6          
        VOFF     .4          


               X_U1.X_U3_U104.S1 
         RON    1            
        ROFF    1.000000E+09 
         VON     .75         
        VOFF     .25         


               X_U1.X_U3_U141.S1 
         RON    1            
        ROFF    1.000000E+09 
         VON     .75         
        VOFF     .25         


               X_U1.X_U3_S5._U3_S5 
         RON    1.000000E-03 
        ROFF    1.000000E+09 
         VON     .6          
        VOFF     .4          


               X_U1.X_U3_S9._U3_S9 
         RON    1.000000E-03 
        ROFF    1.000000E+09 
         VON     .8          
        VOFF     .2          


               X_U1.X_U3_U113.S1 
         RON    1            
        ROFF    1.000000E+09 
         VON     .75         
        VOFF     .25         


               X_U1.X_U3_U124.S1 
         RON    1            
        ROFF    1.000000E+09 
         VON     .75         
        VOFF     .25         


               X_U1.X_U3_S3._U3_S3 
         RON    1.000000E-03 
        ROFF    1.000000E+09 
         VON     .6          
        VOFF     .4          


               X_U1.X_U3_S8._U3_S8 
         RON    1.000000E-03 
        ROFF    1.000000E+09 
         VON     .8          
        VOFF     .2          


               X_U1.X_U1_U4_S6._U1_U4_S6 
         RON    1.000000E-03 
        ROFF    1.000000E+09 
         VON     .8          
        VOFF     .2          


               X_U1.X_U1_U4_U58.S1 
         RON    1            
        ROFF    1.000000E+09 
         VON     .75         
        VOFF     .25         


               X_U1.X_U1_U2_S1._U1_U2_S1 
         RON    1.000000E+06 
        ROFF   10.000000E+09 
         VON     .8          
        VOFF     .2          


ERROR(ORPSIM-16587): Cannot simulate circuit because there are more than 250 devices, which exceeds the limit for PSpice A/D Basics. To simulate this circuit, upgrade to a higher license.


ABORTING SIMULATION
**** 03/12/26 16:16:41 *** PSpice 23.1.0 (17 December 2024) *** ID# 0 ********

 ** Profile: "STARTUP-published"  [ C:\Users\luqui\OneDrive\Documents\GitHub\scales-hardware\imx8x_eps_leviathan\Simulation Models\TP


 ****     JOB STATISTICS SUMMARY


******************************************************************************



Node counts:
  Top level (NUNODS)                =          11
  External (NCNODS)                 =         358
  Total (NUMNOD)                    =         388

Total device count (NUMEL)          =         579
  Capacitors (C)                    =         144
  Diodes (D)                        =          36
  VCVS (E)                          =         151
  CCCS (F)                          =           3
  VCCS (G)                          =          15
  CCVS (H)                          =           2
  MosFETs (M)                       =           1
  Resistors (R)                     =         168
  VSwitches (S)                     =          12
  Voltage Sources (V)               =          47

Number of subcircuits (X)           =          96

Matrix statistics:
  Matrix size (NSTOP)               =         588
  Initial no. elements (NTTAR)      =        1465
  No. elements w/ fillin (NTTBR)    =        1465
  No. fillins (IFILL)               =           0
  No. overflows (NTTOV)             =           0
  No. LU operations (IOPS)          =           0
  Percent sparsity (PERSPA)         =      99.576

Analysis statistics:
  No. total time points (NUMTTP)    =           0
  No. rejected time points (NUMRTP) =           0
  No. iterations (NUMNIT)           =           0

Load Threads                        =           1

Runtime statistics:                       Seconds      Iterations
  Matrix load                       =        0.00
  Matrix solution                   =        0.00               1
  Readin                            =         .23
  General setup                     =         .05
  CMI setup                     =        0.00
  Setup                             =         .05
  DC sweep                          =        0.00               0
  Bias point                        =        0.00               0
  AC and noise                      =        0.00               0
  Total transient analysis          =        0.00
  Output                            =        0.00
  Overhead                          =         .19
  Total job time (using Solver 1)   =        1.73
