LTspice 24.0.12 for Windows
Circuit: * C:\Users\Luca Lanzillotta\Documents\GitHub\scales-hardware\imx8x_eps_leviathan\simulation_models\ltSpice\wd_sim\wd_sim.asc
Start Time: Sat Mar 14 03:17:30 2026
solver = Normal
Maximum thread count: 16
tnom = 27
temp = 27
method = modified trap
Direct Newton iteration failed to find .op point.  (Use ".option noopiter" to skip.)
Starting Gmin stepping
Gmin = 10
Gmin = 1.07374
Gmin = 0.115292
Gmin = 0.0123794
Gmin = 0.00132923
Gmin = 0.000142725
Gmin = 1.5325e-05
Gmin = 1.6455e-06
vernier = 0.5
vernier = 0.25
vernier = 0.125
vernier = 0.0625
Gmin = 1.41835e-06
vernier = 0.0833333
Gmin = 1.18397e-06
vernier = 0.111111
vernier = 0.148148
Gmin = 8.82284e-07
vernier = 0.197531
vernier = 0.263374
Gmin = 5.55813e-07
vernier = 0.351165
Gmin = 2.65298e-07
vernier = 0.46822
vernier = 0.624294
Gmin = 8.12427e-08
vernier = 0.832392
vernier = 1
Gmin = 1.35302e-08
Gmin = 1.4528e-09
Gmin = 1.55993e-10
Gmin = 1.67496e-11
Gmin = 1.79848e-12
Gmin = 1.9311e-13
Gmin = 0
Gmin stepping succeeded in finding the operating point.

Total elapsed time: 0.134 seconds.

