LTspice 24.0.12 for Windows
Circuit: * C:\Users\Luca Lanzillotta\Documents\GitHub\scales-hardware\imx8x_eps_leviathan\simulation_models\ltSpice\wd_sim\wd_sim.asc
Start Time: Fri Mar 13 19:00:51 2026
solver = Normal
Maximum thread count: 16
tnom = 27
temp = 27
method = modified trap
Direct Newton iteration failed to find .op point.  (Use ".option noopiter" to skip.)
Starting Gmin stepping
Gmin = 10
Gmin = 1.07374
Gmin = 0.115292
Gmin = 0.0123794
Gmin = 0.00132923
Gmin = 0.000142725
Gmin = 1.5325e-05
Gmin = 1.6455e-06
Gmin = 1.76685e-07
vernier = 0.5
Gmin = 2.96428e-08
vernier = 0.25
vernier = 0.125
vernier = 0.0625
vernier = 0.03125
Gmin = 2.55507e-08
vernier = 0.015625
vernier = 0.0078125
Gmin = 2.50576e-08
vernier = 0.0104167
vernier = 0.0138889
Gmin = 2.43668e-08
vernier = 0.0185185
vernier = 0.0246913
Gmin = 2.33117e-08
vernier = 0.0329218
Gmin = 2.16977e-08
vernier = 0.0438957
vernier = 0.0585276
Gmin = 1.92969e-08
vernier = 0.0780367
vernier = 0.104049
Gmin = 1.60348e-08
vernier = 0.138732
Gmin = 1.18922e-08
vernier = 0.184976
vernier = 0.246634
Gmin = 7.32325e-09
vernier = 0.328846
vernier = 0.438461
Gmin = 3.43324e-09
vernier = 0.584614
Gmin = 1.03188e-09
vernier = 0.779486
vernier = 1
Gmin = 1.5839e-10
Gmin = 1.7007e-11
Gmin = 1.82611e-12
Gmin = 1.96078e-13
Gmin = 0
Gmin stepping succeeded in finding the operating point.

Total elapsed time: 9.775 seconds.

