LTspice 24.0.12 for Windows
Circuit: * C:\Users\Luca Lanzillotta\Documents\GitHub\scales-hardware\imx8x_eps_leviathan\simulation_models\ltSpice\wd_sim\wd_sim.asc
Start Time: Tue Mar 24 01:29:24 2026
solver = Normal
Maximum thread count: 16
tnom = 27
temp = 27
method = modified trap
Direct Newton iteration failed to find .op point.  (Use ".option noopiter" to skip.)
Starting Gmin stepping
Gmin = 10
Gmin = 1.07374
Gmin = 0.115292
Gmin = 0.0123794
Gmin = 0.00132923
Gmin = 0.000142725
Gmin = 1.5325e-05
Gmin = 1.6455e-06
vernier = 0.5
vernier = 0.25
vernier = 0.125
Gmin = 9.07742e-07
vernier = 0.0625
vernier = 0.03125
Gmin = 8.59667e-07
vernier = 0.0416667
vernier = 0.0555555
Gmin = 7.6448e-07
vernier = 0.074074
vernier = 0.0987653
Gmin = 6.34433e-07
vernier = 0.131687
Gmin = 4.73815e-07
vernier = 0.175583
vernier = 0.23411
Gmin = 2.91647e-07
vernier = 0.312147
vernier = 0.416196
Gmin = 1.36043e-07
vernier = 0.554928
Gmin = 4.19946e-08
vernier = 0.739903
vernier = 0.986537
Gmin = 6.28029e-09
vernier = 1
Gmin = 6.77987e-10
Gmin = 7.27983e-11
Gmin = 7.81666e-12
Gmin = 8.39307e-13
Gmin = 0
Gmin = 0
Gmin stepping succeeded in finding the operating point.

Total elapsed time: 0.121 seconds.

