LTspice 24.1.5 for Windows
Circuit: C:\Users\luqui\OneDrive\Documents\GitHub\scales-hardware\imx8x_eps_leviathan\simulation_models\ltSpice\TPS1HB08_sim\TPS1HB08_Sim.net
Start Time: Fri Mar 13 17:26:56 2026
solver = Normal
Maximum thread count: 16
tnom = 27
temp = 27
method = trap
d_d1: Emission coefficient, N=0.01, too small, limited to 0.1
d_d1: Emission coefficient, N=0.01, too small, limited to 0.1
d_d1: Emission coefficient, N=0.01, too small, limited to 0.1
d_d1: Emission coefficient, N=0.01, too small, limited to 0.1
d_d1: Emission coefficient, N=0.01, too small, limited to 0.1
dd: Emission coefficient, N=0.01, too small, limited to 0.1
dd: Emission coefficient, N=0.01, too small, limited to 0.1
dd: Emission coefficient, N=0.01, too small, limited to 0.1
dd: Emission coefficient, N=0.01, too small, limited to 0.1
dd: Emission coefficient, N=0.01, too small, limited to 0.1
dd: Emission coefficient, N=0.01, too small, limited to 0.1
Direct Newton iteration for .op point succeeded.
Changing Tseed to 1e-08
Warning: Simulation tolerance relaxed to achieve convergence from 4.3635333557145071e-05 to 4.3635333557146074e-05 seconds.
Warning: Simulation tolerance relaxed to achieve convergence from 4.3635352993144411e-05 to 4.3635352993145413e-05 seconds.
Warning: Simulation tolerance relaxed to achieve convergence from 4.3635352993146416e-05 to 4.3635352993150428e-05 seconds.
Warning: Simulation tolerance relaxed to achieve convergence from 6.8780081306721218e-05 to 6.8780081306722221e-05 seconds.
Warning: Simulation tolerance relaxed to achieve convergence from 6.8780081306723224e-05 to 6.8780081306734256e-05 seconds.
Warning: Simulation tolerance relaxed to achieve convergence from 6.8780081306737265e-05 to 6.8780081306738268e-05 seconds.
Warning: Simulation tolerance relaxed to achieve convergence from 1.3619760090307885e-04 to 1.3619760090308688e-04 seconds.
Warning: Simulation tolerance relaxed to achieve convergence from 1.3619760090308788e-04 to 1.3619760090309089e-04 seconds.
Warning: Simulation tolerance relaxed to achieve convergence from 1.3619760328157342e-04 to 1.3619760328157442e-04 seconds.
Warning: Simulation tolerance relaxed to achieve convergence from 1.3619760328157542e-04 to 1.3619760328158345e-04 seconds.
Warning: Simulation tolerance relaxed to achieve convergence from 1.3619760328168745e-04 to 1.3619760328168845e-04 seconds.
Warning: Simulation tolerance relaxed to achieve convergence from 1.3619760448109364e-04 to 1.3619760448110266e-04 seconds.
Warning: Simulation tolerance relaxed to achieve convergence from 1.3619760448342351e-04 to 1.3619760448343253e-04 seconds.
Warning: Simulation tolerance relaxed to achieve convergence from 1.3619760448343353e-04 to 1.3619760448343755e-04 seconds.
Warning: Simulation tolerance relaxed to achieve convergence from 1.3619760449398943e-04 to 1.3619760449399645e-04 seconds.
Warning: Simulation tolerance relaxed to achieve convergence from 1.3619760449399746e-04 to 1.3619760449400047e-04 seconds.
Warning: Simulation tolerance relaxed to achieve convergence from 2.4626261757429457e-04 to 2.4626261757430140e-04 seconds.
Warning: Simulation tolerance relaxed to achieve convergence from 2.4626261760889607e-04 to 2.4626261760889704e-04 seconds.
Warning: Simulation tolerance relaxed to achieve convergence from 7.7995992103840710e-04 to 7.7995992103841295e-04 seconds.
Warning: Simulation tolerance relaxed to achieve convergence from 7.7995992103841610e-04 to 7.7995992103841707e-04 seconds.
Warning: Simulation tolerance relaxed to achieve convergence from 7.7995992736568814e-04 to 7.7995992736569594e-04 seconds.
Warning: Simulation tolerance relaxed to achieve convergence from 7.7995992736569692e-04 to 7.7995992736569985e-04 seconds.
Warning: Simulation tolerance relaxed to achieve convergence from 7.7995992736572023e-04 to 7.7995992736572121e-04 seconds.
Warning: Simulation tolerance relaxed to achieve convergence from 8.0180236297177287e-04 to 8.0180236297178360e-04 seconds.
Warning: Simulation tolerance relaxed to achieve convergence from 8.0180236297178458e-04 to 8.0180236297178653e-04 seconds.
Warning: Simulation tolerance relaxed to achieve convergence from 8.0180236297195859e-04 to 8.0180236297196445e-04 seconds.
Warning: Simulation tolerance relaxed to achieve convergence from 8.0180236297196857e-04 to 8.0180236297196954e-04 seconds.
Warning: Simulation tolerance relaxed to achieve convergence from 9.7864333259379968e-04 to 9.7864333259380511e-04 seconds.
Warning: Simulation tolerance relaxed to achieve convergence from 9.7864333259384696e-04 to 9.7864333259385346e-04 seconds.
Warning: Simulation tolerance relaxed to achieve convergence from 9.7864333259385454e-04 to 9.7864333259385780e-04 seconds.
Warning: Simulation tolerance relaxed to achieve convergence from 9.7864333956455244e-04 to 9.7864333956456111e-04 seconds.
Warning: Simulation tolerance relaxed to achieve convergence from 9.7864333959159547e-04 to 9.7864333959159656e-04 seconds.
Warning: Simulation tolerance relaxed to achieve convergence from 1.0177152875308030e-03 to 1.0177152875308129e-03 seconds.
Warning: Simulation tolerance relaxed to achieve convergence from 1.0177152875308229e-03 to 1.0177152875308628e-03 seconds.
Warning: Simulation tolerance relaxed to achieve convergence from 1.1167991414285604e-03 to 1.1167991414285704e-03 seconds.
Warning: Simulation tolerance relaxed to achieve convergence from 1.1457756201366592e-03 to 1.1457756201366891e-03 seconds.
Warning: Simulation tolerance relaxed to achieve convergence from 1.1457756201366991e-03 to 1.1457756201367489e-03 seconds.
Warning: Simulation tolerance relaxed to achieve convergence from 1.1457756201367589e-03 to 1.1457756201367689e-03 seconds.
Warning: Simulation tolerance relaxed to achieve convergence from 1.3326389373352883e-03 to 1.3326389373353681e-03 seconds.
Warning: Simulation tolerance relaxed to achieve convergence from 1.8400688169715798e-03 to 1.8400688169716896e-03 seconds.
Total elapsed time: 12.889 seconds.

Files loaded:
C:\Users\luqui\OneDrive\Documents\GitHub\scales-hardware\imx8x_eps_leviathan\simulation_models\ltSpice\TPS1HB08_sim\TPS1HB08_Sim.net
C:\Users\luqui\OneDrive\Documents\GitHub\scales-hardware\imx8x_eps_leviathan\simulation_models\ltSpice\TPS1HB08_sim\TPS1HB08B-Q1_TRANS.lib

