LTspice 24.0.12 for Windows
Circuit: * C:\Users\Luca Lanzillotta\Documents\GitHub\scales-hardware\imx8x_eps_leviathan\simulation_models\ltSpice\TPS1HB08_sim\TPS1HB08_Sim.asc
Start Time: Sat Mar 14 03:00:15 2026
Questionable use of curly braces in "b§e_abmgate yint 0 v={if(v(a)>{{vthresh}},{{vdd}},{{vss}})}"
    Error: undefined symbol in: "if([v](a)>((vthresh)),((vdd)),((vss)))"
Questionable use of curly braces in "b§e_abmgate yint 0 v={if(v(a)>{{vthresh}},{{vss}},{{vdd}})}"
    Error: undefined symbol in: "if([v](a)>((vthresh)),((vss)),((vdd)))"
Questionable use of curly braces in "b§e_abmgate yint 0 v={if(v(a)>{{vthresh}}&v(b)>{{vthresh}},{{vdd}},{{vss}})}"
    Error: undefined symbol in: "if([v](a)>((vthresh))&v(b)>((vthresh)),((vdd)),((vss)))"
Questionable use of curly braces in "b§e_abmgate yint 0 v={if(v(a)>{{vthresh}},{{vss}},{{vdd}})}"
    Error: undefined symbol in: "if([v](a)>((vthresh)),((vss)),((vdd)))"
Questionable use of curly braces in "b§e_abmgate yint 0 v={if(v(a)>{{vthresh}},{{vdd}},{{vss}})}"
    Error: undefined symbol in: "if([v](a)>((vthresh)),((vdd)),((vss)))"
Questionable use of curly braces in "b§e_abmgate yint 0 v={if(v(a)>{{vthresh}},{{vdd}},{{vss}})}"
    Error: undefined symbol in: "if([v](a)>((vthresh)),((vdd)),((vss)))"
Questionable use of curly braces in "b§e_abmgate yint 0 v={if(v(a)>{{vthresh}}|v(b)>{{vthresh}},{{vdd}},{{vss}})}"
    Error: undefined symbol in: "if([v](a)>((vthresh))|v(b)>((vthresh)),((vdd)),((vss)))"
Questionable use of curly braces in "b§e_abmgate yint 0 v={if(v(a)>{{vthresh}}|v(b)>{{vthresh}},{{vdd}},{{vss}})}"
    Error: undefined symbol in: "if([v](a)>((vthresh))|v(b)>((vthresh)),((vdd)),((vss)))"
Questionable use of curly braces in "b§e_abmgate yint 0 v={if(v(a)>{{vthresh}}&v(b)>{{vthresh}},{{vdd}},{{vss}})}"
    Error: undefined symbol in: "if([v](a)>((vthresh))&v(b)>((vthresh)),((vdd)),((vss)))"
Questionable use of curly braces in "b§e_abmgate yint 0 v={if(v(a)>{{vthresh}}|v(b)>{{vthresh}}|v(c)>{{vthresh}},{{vdd}},{{vss}})}"
    Error: undefined symbol in: "if([v](a)>((vthresh))|v(b)>((vthresh))|v(c)>((vthresh)),((vdd)),((vss)))"
Questionable use of curly braces in "b§e_abmgate yint 0 v={if(v(s)>{{vthresh}},v(b),v(a))}"
    Error: undefined symbol in: "if([v](s)>((vthresh)),v(b),v(a))"
Questionable use of curly braces in "b§e_abmgate yint 0 v={if(v(a)>{{vthresh}}&v(b)>{{vthresh}}&v(c)>{{vthresh}},{{vdd}},{{vss}})}"
    Error: undefined symbol in: "if([v](a)>((vthresh))&v(b)>((vthresh))&v(c)>((vthresh)),((vdd)),((vss)))"
Questionable use of curly braces in "b§e_abmgate yint 0 v={if(v(a)>{{vthresh}}|v(b)>{{vthresh}},{{vdd}},{{vss}})}"
    Error: undefined symbol in: "if([v](a)>((vthresh))|v(b)>((vthresh)),((vdd)),((vss)))"
Questionable use of curly braces in "b§e_abmgate yint 0 v={if(v(a)>{{vthresh}}&v(b)>{{vthresh}}&v(c)>{{vthresh}}&v(d)>{{vthresh}},{{vdd}},{{vss}})}"
    Error: undefined symbol in: "if([v](a)>((vthresh))&v(b)>((vthresh))&v(c)>((vthresh))&v(d)>((vthresh)),((vdd)),((vss)))"
Questionable use of curly braces in "b§e_abmgate yint 0 v={if(v(a)>{{vthresh}}|v(b)>{{vthresh}}|v(c)>{{vthresh}},{{vdd}},{{vss}})}"
    Error: undefined symbol in: "if([v](a)>((vthresh))|v(b)>((vthresh))|v(c)>((vthresh)),((vdd)),((vss)))"
Questionable use of curly braces in "b§e_abmgate1 yint1 0 v={if(v(a)>{{vthresh}},{{vdd}},{{vss}})}"
    Error: undefined symbol in: "if([v](a)>((vthresh)),((vdd)),((vss)))"
Questionable use of curly braces in "b§e_abmgate2 yint3 0 v={if(v(yint2)>{{vthresh}},{{vdd}},{{vss}})}"
    Error: undefined symbol in: "if([v](yint2)>((vthresh)),((vdd)),((vss)))"
Questionable use of curly braces in "b§e_abmgate yint 0 v={if(v(a)>{{vthresh}}|v(b)>{{vthresh}}|v(c)>{{vthresh}},{{vss}},{{vdd}})}"
    Error: undefined symbol in: "if([v](a)>((vthresh))|v(b)>((vthresh))|v(c)>((vthresh)),((vss)),((vdd)))"
Questionable use of curly braces in "b§e_abmgate yint 0 v={if(v(a)>{{vthresh}}|v(b)>{{vthresh}},{{vss}},{{vdd}})}"
    Error: undefined symbol in: "if([v](a)>((vthresh))|v(b)>((vthresh)),((vss)),((vdd)))"
Questionable use of curly braces in "b§e_abmgate1 yint1 0 v={if(v(a)>{{vthresh}},{{vdd}},{{vss}})}"
    Error: undefined symbol in: "if([v](a)>((vthresh)),((vdd)),((vss)))"
Questionable use of curly braces in "b§e_abmgate2 yint3 0 v={if(v(yint2)>{{vthresh}},{{vdd}},{{vss}})}"
    Error: undefined symbol in: "if([v](yint2)>((vthresh)),((vdd)),((vss)))"
Questionable use of curly braces in "b§e_abmgate yint 0 v={if(v(a)>{{vthresh}},{{vdd}},{{vss}})}"
    Error: undefined symbol in: "if([v](a)>((vthresh)),((vdd)),((vss)))"
Questionable use of curly braces in "b§e_abmgate yint 0 v={if(v(a)>{{vthresh}}|v(b)>{{vthresh}},{{vdd}},{{vss}})}"
    Error: undefined symbol in: "if([v](a)>((vthresh))|v(b)>((vthresh)),((vdd)),((vss)))"
Questionable use of curly braces in "b§e_abmgate yint 0 v={if(v(a)>{{vthresh}},{{vss}},{{vdd}})}"
    Error: undefined symbol in: "if([v](a)>((vthresh)),((vss)),((vdd)))"
Questionable use of curly braces in "b§e_abmgate yint 0 v={if(v(a)>{{vthresh}}&v(b)>{{vthresh}},{{vdd}},{{vss}})}"
    Error: undefined symbol in: "if([v](a)>((vthresh))&v(b)>((vthresh)),((vdd)),((vss)))"
Questionable use of curly braces in "b§e_abmgate1 yint1 0 v={if(v(a)>{{vthresh}},{{vdd}},{{vss}})}"
    Error: undefined symbol in: "if([v](a)>((vthresh)),((vdd)),((vss)))"
Questionable use of curly braces in "b§e_abmgate2 yint3 0 v={if(v(yint2)>{{vthresh}},{{vdd}},{{vss}})}"
    Error: undefined symbol in: "if([v](yint2)>((vthresh)),((vdd)),((vss)))"
Questionable use of curly braces in "b§e_abmgate yint 0 v={if(v(a)>{{vthresh}}&v(b)>{{vthresh}}&v(c)>{{vthresh}},{{vdd}},{{vss}})}"
    Error: undefined symbol in: "if([v](a)>((vthresh))&v(b)>((vthresh))&v(c)>((vthresh)),((vdd)),((vss)))"
Questionable use of curly braces in "b§e_abmgate yint 0 v={if(v(a)>{{vthresh}}|v(b)>{{vthresh}},{{vdd}},{{vss}})}"
    Error: undefined symbol in: "if([v](a)>((vthresh))|v(b)>((vthresh)),((vdd)),((vss)))"
Questionable use of curly braces in "b§e_abmgate yint 0 v={if(v(a)>{{vthresh}}&v(b)>{{vthresh}},{{vdd}},{{vss}})}"
    Error: undefined symbol in: "if([v](a)>((vthresh))&v(b)>((vthresh)),((vdd)),((vss)))"
Questionable use of curly braces in "b§e_abmgate yint 0 v={if(v(a)>{{vthresh}},{{vss}},{{vdd}})}"
    Error: undefined symbol in: "if([v](a)>((vthresh)),((vss)),((vdd)))"
Questionable use of curly braces in "b§e_abmgate yint 0 v={if(v(a)>{{vthresh}}&v(b)>{{vthresh}},{{vdd}},{{vss}})}"
    Error: undefined symbol in: "if([v](a)>((vthresh))&v(b)>((vthresh)),((vdd)),((vss)))"
Questionable use of curly braces in "b§e_abmgate yint 0 v={if(v(a)>{{vthresh}},{{vss}},{{vdd}})}"
    Error: undefined symbol in: "if([v](a)>((vthresh)),((vss)),((vdd)))"
Questionable use of curly braces in "b§e_abmgate yint 0 v={if(v(a)>{{vthresh}},{{vss}},{{vdd}})}"
    Error: undefined symbol in: "if([v](a)>((vthresh)),((vss)),((vdd)))"
Questionable use of curly braces in "b§e_abmgate yint 0 v={if(v(a)>{{vthresh}}&v(b)>{{vthresh}},{{vdd}},{{vss}})}"
    Error: undefined symbol in: "if([v](a)>((vthresh))&v(b)>((vthresh)),((vdd)),((vss)))"
Questionable use of curly braces in "b§e_abmgate yint 0 v={if(v(a)>{{vthresh}}&v(b)>{{vthresh}},{{vdd}},{{vss}})}"
    Error: undefined symbol in: "if([v](a)>((vthresh))&v(b)>((vthresh)),((vdd)),((vss)))"
Questionable use of curly braces in "b§e_abmgate1 yint1 0 v={if(v(a)>{{vthresh}},{{vdd}},{{vss}})}"
    Error: undefined symbol in: "if([v](a)>((vthresh)),((vdd)),((vss)))"
Questionable use of curly braces in "b§e_abmgate2 yint3 0 v={if(v(yint2)>{{vthresh}},{{vdd}},{{vss}})}"
    Error: undefined symbol in: "if([v](yint2)>((vthresh)),((vdd)),((vss)))"
Questionable use of curly braces in "b§e_abmgate1 yint1 0 v={if(v(a)>{{vthresh}},{{vdd}},{{vss}})}"
    Error: undefined symbol in: "if([v](a)>((vthresh)),((vdd)),((vss)))"
Questionable use of curly braces in "b§e_abmgate2 yint3 0 v={if(v(yint2)>{{vthresh}},{{vdd}},{{vss}})}"
    Error: undefined symbol in: "if([v](yint2)>((vthresh)),((vdd)),((vss)))"
Questionable use of curly braces in "b§e_abmgate1 yint1 0 v={if(v(a)>{{vthresh}},{{vdd}},{{vss}})}"
    Error: undefined symbol in: "if([v](a)>((vthresh)),((vdd)),((vss)))"
Questionable use of curly braces in "b§e_abmgate2 yint3 0 v={if(v(yint2)>{{vthresh}},{{vdd}},{{vss}})}"
    Error: undefined symbol in: "if([v](yint2)>((vthresh)),((vdd)),((vss)))"
Questionable use of curly braces in "b§e_abmgate1 yint1 0 v={if(v(a)>{{vthresh}},{{vdd}},{{vss}})}"
    Error: undefined symbol in: "if([v](a)>((vthresh)),((vdd)),((vss)))"
Questionable use of curly braces in "b§e_abmgate2 yint3 0 v={if(v(yint2)>{{vthresh}},{{vdd}},{{vss}})}"
    Error: undefined symbol in: "if([v](yint2)>((vthresh)),((vdd)),((vss)))"
Questionable use of curly braces in "b§e_abmgate yint 0 v={if(v(a)>{{vthresh}},{{vdd}},{{vss}})}"
    Error: undefined symbol in: "if([v](a)>((vthresh)),((vdd)),((vss)))"
Questionable use of curly braces in "b§e_abmgate yint 0 v={if(v(a)>{{vthresh}},{{vdd}},{{vss}})}"
    Error: undefined symbol in: "if([v](a)>((vthresh)),((vdd)),((vss)))"
Questionable use of curly braces in "b§e_abmgate yint 0 v={if(v(a)>{{vthresh}},{{vdd}},{{vss}})}"
    Error: undefined symbol in: "if([v](a)>((vthresh)),((vdd)),((vss)))"
Questionable use of curly braces in "b§e_abmgate yint 0 v={if(v(a)>{{vthresh}},{{vdd}},{{vss}})}"
    Error: undefined symbol in: "if([v](a)>((vthresh)),((vdd)),((vss)))"
Questionable use of curly braces in "b§e_abmgate yint 0 v={if(v(a)>{{vthresh}},{{vdd}},{{vss}})}"
    Error: undefined symbol in: "if([v](a)>((vthresh)),((vdd)),((vss)))"
solver = Normal
Maximum thread count: 16
tnom = 27
temp = 27
method = modified trap
WARNING: Less than two connections to node n011.  This node is used by r6.
WARNING: Less than two connections to node n010.  This node is used by r7.
WARNING: Less than two connections to node n009.  This node is used by r8.
u1:_u3_u105:d_d1: Emission coefficient, N=0.01, too small, limited to 0.1
u1:_u3_u144:d_d1: Emission coefficient, N=0.01, too small, limited to 0.1
u1:_u3_u140:d_d1: Emission coefficient, N=0.01, too small, limited to 0.1
u1:_u3_u114:d_d1: Emission coefficient, N=0.01, too small, limited to 0.1
u1:_u1_u4_u62:d_d1: Emission coefficient, N=0.01, too small, limited to 0.1
u1:_u1_u4_u61:dd: Emission coefficient, N=0.01, too small, limited to 0.1
u1:_u1_u4_u22:dd: Emission coefficient, N=0.01, too small, limited to 0.1
u1:_u1_u2_u205:dd: Emission coefficient, N=0.01, too small, limited to 0.1
u1:_u1_u2_u206:dd: Emission coefficient, N=0.01, too small, limited to 0.1
u1:_u1_u2_u204:dd: Emission coefficient, N=0.01, too small, limited to 0.1
u1:_u1_u2_u220:dd: Emission coefficient, N=0.01, too small, limited to 0.1
Direct Newton iteration for .op point succeeded.
Ignoring empty pin current: Ix(u1:nc_0)
Ignoring empty pin current: Ix(u1:nc_1)
Ignoring empty pin current: Ix(u1:nc_2)
Ignoring empty pin current: Ix(u1:vout_1)
Ignoring empty pin current: Ix(u1:vout_2)
Ignoring empty pin current: Ix(u1:vout_3)
Ignoring empty pin current: Ix(u1:vout_4)
Ignoring empty pin current: Ix(u1:vout_5)
Ignoring empty pin current: Ix(u1:nc_0)
Ignoring empty pin current: Ix(u1:nc_1)
Ignoring empty pin current: Ix(u1:nc_2)
Ignoring empty pin current: Ix(u1:vout_1)
Ignoring empty pin current: Ix(u1:vout_2)
Ignoring empty pin current: Ix(u1:vout_3)
Ignoring empty pin current: Ix(u1:vout_4)
Ignoring empty pin current: Ix(u1:vout_5)
Changing Tseed to 1e-08
Heightened Def Con from 1.02216e-08 to 1.13466e-08
Heightened Def Con from 1.29163e-08 to 1.40413e-08
Heightened Def Con from 6.90847e-08 to 7.02097e-08
Total elapsed time: 0.318 seconds.

