Warning: can't find the initialization file spinit.

Note: No compatibility mode selected!

Warning: redefinition of .subckt tps1ha08b-q1_trans, ignored

Circuit: SCALES EPS REF F Simulation Model

binary raw file "sim.raw"
Doing analysis at TEMP = 27.000000 and TNOM = 27.000000

Using SPARSE 1.3 as Direct Linear Solver
No. of Data Columns : 15  
Warning: singular matrix:  check node vout

Warning: singular matrix:  check node vout

Note: Starting dynamic gmin stepping
Warning: singular matrix:  check node vout

Warning: Dynamic gmin stepping failed
Note: Starting true gmin stepping
Warning: singular matrix:  check node vout

Warning: singular matrix:  check node vout

Warning: singular matrix:  check node vout

Warning: True gmin stepping failed
Note: Starting source stepping
Warning: source stepping failed
Note: Transient op started
Note: Transient op finished successfully

No. of Data Rows : 29
No. of Data Columns : 14  

No. of Data Rows : 1
.print line ignored since rawfile was produced.

Total analysis time (seconds) = 0.0062674

Total elapsed time (seconds) = 0.070 

Total DRAM available = 32435.992 MB.
DRAM currently available = 18712.590 MB.
Maximum ngspice program size =   25.121 MB.
Current ngspice program size =   25.121 MB.

